####################################################################### 
# 
# This file contains crystal structure data downloaded from the 
# Cambridge Structural Database (CSD) hosted by the Cambridge 
# Crystallographic Data Centre (CCDC).
# 
# Full information about CCDC data access policies and citation 
# guidelines are available at http://www.ccdc.cam.ac.uk/access/V1 
# 
# Audit and citation data items may have been added by the CCDC. 
# Please retain this information to preserve the provenance of 
# this file and to allow appropriate attribution of the data. 
# 
#######################################################################

data_dry-MOF-5-C7
_audit_block_doi                 10.5517/ccdc.csd.cc26hr7q
_database_code_depnum_ccdc_archive 'CCDC 2040923'
loop_
_citation_id
_citation_doi
_citation_year
1 10.1038/s41467-021-24188-4 2021
loop_
_audit_author_name
_audit_author_address
'Roman Pallach'
;TU Dortmund
Germany
;
_audit_update_record             
;
2020-10-27 deposited with the CCDC.	2023-03-29 downloaded from the CCDC.
;
# start Validation Reply Form
_vrf_PLAT601_dry-MOF-5-C7        
;
PROBLEM: Unit Cell Contains Solvent Accessible VOIDS of .        342 Ang**3
RESPONSE: The crystal is porous.
;
_vrf_PLAT043_dry-MOF-5-C7        
;
PROBLEM: Calculated and Reported Mol. Weight Differ by ..     290.04 Check
RESPONSE: Structure is based on a Rietveld refinement of PXRD data. H atoms have not been included in the model, but in the chemical formula.
;
_vrf_PLAT241_dry-MOF-5-C7        
;
PROBLEM: High   'MainMol' Ueq as Compared to Neighbors of         C5 Check
RESPONSE: C atoms in the flexible alkyl chain have been modelled with a rather large Ueq value. The neighbouring O atom is connected to the phenyl ring and has been given a lower Ueq value.
;
_vrf_PLAT242_dry-MOF-5-C7        
;
PROBLEM: Low    'MainMol' Ueq as Compared to Neighbors of         O4 Check
RESPONSE: C atoms in the flexible alkyl chain have been modelled with a rather large Ueq value. The neighbouring O atom is connected to the phenyl ring and has been given a lower Ueq value.
;
# Added during the CSD deposition process: Tuesday 27 October 2020 04:07 PM
# end Validation Reply Form

#==============================================================================
# Title & Author Information
#==============================================================================
#_publ_section_title
#; ?
#;
#loop_
#	_publ_author_name
#	_publ_author_address
#Your Name #(in single quote marks, without this is an error)
#;
#Your Address
#;

#==============================================================================
# Chemical + Structural + Crystal Information
#==============================================================================
_chemical_formula_moiety         'C66 H96 O19 Zn4'
# Note: _chemical_formula_sum/_weight/_cell_formula_units_Z need to be 
# recalculated if any one is changed
_chemical_formula_sum            'C66 H96 O19 Zn4'
_chemical_formula_weight         1454.90
_cell_formula_units_Z            3
_pd_char_colour                  colourless #ITC Vol G p.233-234
_exptl_crystal_density_diffrn    1.171
_exptl_crystal_density_meas      ?
_exptl_crystal_density_method    ?
_cell_measurement_temperature    300 #Experiment temperature in K

#==============================================================================
# Instrument + Refinement Information
#==============================================================================
_diffrn_ambient_temperature      300 #Experiment temperature in K
_diffrn_measurement_device_type  
'P02.1, Deutsches Elektronen Synchrotron, Hamburg, Germany'
_diffrn_radiation_probe          x-ray
_diffrn_radiation_wavelength     0.2073
_diffrn_radiation_type           Synchrotron #ITC Vol G p.227
_pd_proc_ls_prof_R_factor        0.0097
_pd_proc_ls_prof_wR_factor       0.0141
_pd_proc_ls_prof_wR_expected     0.0242
_refine_ls_R_I_factor            0.0070
_refine_ls_goodness_of_fit_all   0.58266
_refine_ls_shift/su_max          0
_refine_ls_number_parameters     ? # How many parameters refined
_refine_ls_number_restraints     59
_refine_diff_density_max         ? #Highest Fourier peak
_refine_diff_density_min         ? #Deepest Fourier hole

#==============================================================================
# Phase Information
#==============================================================================
_cell_length_a                   17.1955(6)
_cell_length_b                   17.1955(6)
_cell_length_c                   24.1735(18)
_cell_angle_alpha                90
_cell_angle_beta                 90
_cell_angle_gamma                120
_cell_volume                     6190.2(6)
_symmetry_cell_setting           Hexagonal
_symmetry_space_group_name_H-M   R-3
_symmetry_space_group_name_Hall  '-R 3'
_space_group_IT_number           148
loop_
_symmetry_equiv_pos_site_id
_symmetry_equiv_pos_as_xyz
1 'x, y, z '
2 '-x+y, -x, z '
3 '-y, x-y, z '
4 'y, -x+y, -z '
5 'x-y, x, -z '
6 '-x, -y, -z '
7 'x-1/3, y+1/3, z+1/3 '
8 '-x+y-1/3, -x+1/3, z+1/3 '
9 '-y-1/3, x-y+1/3, z+1/3 '
10 'y-1/3, -x+y+1/3, -z+1/3 '
11 'x-y-1/3, x+1/3, -z+1/3 '
12 '-x-1/3, -y+1/3, -z+1/3 '
13 'x+1/3, y-1/3, z-1/3 '
14 '-x+y+1/3, -x-1/3, z-1/3 '
15 '-y+1/3, x-y-1/3, z-1/3 '
16 'y+1/3, -x+y-1/3, -z-1/3 '
17 'x-y+1/3, x-1/3, -z-1/3 '
18 '-x+1/3, -y-1/3, -z-1/3 '

# Atomic coordinates & thermal parameters
loop_
_atom_site_label
_atom_site_type_symbol
_atom_site_symmetry_multiplicity
_atom_site_fract_x
_atom_site_fract_y
_atom_site_fract_z
_atom_site_occupancy
_atom_site_B_iso_or_equiv
Zn1 Zn 6 0 0 -0.07951 0.5 2.58638
Zn2 Zn 18 -0.12668 -0.06485 0.02206 0.5 2.58638
O1 O 3 0 0 0 1 3.08153
C1 C 18 -0.18426 -0.09402 -0.09255 1 3.08153
C2 C 18 -0.26175 -0.13122 -0.13164 1 3.08153
C3 C 18 -0.33212 -0.21697 -0.12296 1 3.08153
C4 C 18 -0.26459 -0.08097 -0.17516 1 3.08153
O2 O 18 -0.16922 -0.14841 -0.06614 0.5 3.08153
O2A O 18 -0.20541 -0.09428 -0.04003 0.5 3.08153
O3 O 18 -0.16008 -0.01387 -0.07773 0.5 3.08153
O3A O 18 -0.11237 -0.07534 -0.11518 0.5 3.08153
O4 O 18 -0.19567 0.00454 -0.18178 1 3.08153
C5 C 18 -0.15572 0.05287 -0.23263 1 12
C6 C 18 -0.07603 0.14286 -0.21782 1 12
C7 C 18 -0.06889 0.2116 -0.25945 1 12
C8 C 18 -0.10453 0.2672 -0.23315 1 12
C9 C 18 -0.05655 0.36036 -0.25779 1 12
C10 C 18 -0.12466 0.39373 -0.26487 1 12
C11 C 18 -0.07386 0.49501 -0.27967 1 12

# Molecular Geometry
loop_
_geom_bond_atom_site_label_1
_geom_bond_atom_site_label_2
_geom_bond_distance
_geom_bond_site_symmetry_1
_geom_bond_site_symmetry_2
Zn1 O3A 1.91108 1_555 3_555
Zn1 O3A 1.91108 1_555 2_555
Zn1 O3A 1.91108 1_555 1_555
Zn1 O1 1.92204 1_555 1_555
Zn1 Zn2 2.34269 1_555 4_555
Zn1 Zn2 2.34269 1_555 5_555
Zn1 Zn2 2.34269 1_555 6_555
Zn1 O3 2.64185 1_555 1_555
Zn1 O3 2.64185 1_555 3_555
Zn1 O3 2.64185 1_555 2_555
Zn1 C1 2.76220 1_555 3_555
Zn1 C1 2.76220 1_555 2_555
Zn1 C1 2.76220 1_555 1_555
Zn1 O2 2.76738 1_555 3_555
Zn1 O2 2.76738 1_555 2_555
Zn1 O2 2.76738 1_555 1_555
Zn1 Zn2 3.09646 1_555 1_555
Zn1 Zn2 3.09646 1_555 3_555
Zn1 Zn2 3.09646 1_555 2_555
Zn2 O2A 1.91222 1_555 1_555
Zn2 O1 1.96059 1_555 1_555
Zn2 O2 1.99877 1_555 4_555
Zn2 O3 2.01380 1_555 5_555
Zn2 Zn2 2.16726 1_555 4_555
Zn2 Zn2 2.16726 1_555 5_555
Zn2 Zn1 2.34269 1_555 4_555
Zn2 O2 2.46870 1_555 1_555
Zn2 O2A 2.59777 1_555 5_555
Zn2 O3A 2.71460 1_555 4_555
Zn2 O3 2.72413 1_555 1_555
Zn2 O2A 2.82317 1_555 4_555
Zn2 C1 2.90020 1_555 1_555
Zn2 C1 2.96631 1_555 5_555
Zn2 C1 2.97211 1_555 4_555
Zn2 O3A 3.06122 1_555 5_555
Zn2 Zn1 3.09646 1_555 1_555
O1 Zn1 1.92204 1_555 1_555
O1 Zn1 1.92204 1_555 4_555
O1 Zn2 1.96059 1_555 3_555
O1 Zn2 1.96059 1_555 4_555
O1 Zn2 1.96059 1_555 6_555
O1 Zn2 1.96059 1_555 1_555
O1 Zn2 1.96059 1_555 5_555
O1 Zn2 1.96059 1_555 2_555
O1 O2 3.17966 1_555 5_555
O1 O2 3.17966 1_555 2_555
O1 O2 3.17966 1_555 3_555
O1 O2 3.17966 1_555 4_555
O1 O2 3.17966 1_555 1_555
O1 O2 3.17966 1_555 6_555
C1 O3A 1.23835 1_555 1_555
C1 O2 1.26138 1_555 1_555
C1 O3 1.27580 1_555 1_555
C1 O2A 1.32005 1_555 1_555
C1 C2 1.49170(10) 1_555 1_555
C1 C3 2.4697(2) 1_555 1_555
C1 C4 2.5013(2) 1_555 1_555
C1 Zn1 2.76220 1_555 1_555
C1 O4 2.8100(2) 1_555 1_555
C1 Zn2 2.90020 1_555 1_555
C1 Zn2 2.96631 1_555 4_555
C1 Zn2 2.97211 1_555 5_555
C2 C4 1.37770(10) 1_555 1_555
C2 C3 1.37780(10) 1_555 1_555
C2 C1 1.49170(10) 1_555 1_555
C2 O3A 2.28287 1_555 1_555
C2 O3 2.30192 1_555 1_555
C2 C4 2.3552(2) 1_555 18_455
C2 O4 2.3574(2) 1_555 1_555
C2 C3 2.3610(2) 1_555 18_455
C2 O2 2.36566 1_555 1_555
C2 O2A 2.37294 1_555 1_555
C2 C2 2.7227(2) 1_555 18_455
C3 C4 1.34530(10) 1_555 18_455
C3 C2 1.37780(10) 1_555 1_555
C3 O4 2.3533(2) 1_555 18_455
C3 C2 2.3610(2) 1_555 18_455
C3 C4 2.3862(2) 1_555 1_555
C3 C1 2.4697(2) 1_555 1_555
C3 C3 2.7444(2) 1_555 18_455
C3 O2 2.79653 1_555 1_555
C3 O2A 2.93605 1_555 1_555
C3 C5 3.0439(2) 1_555 18_455
C4 C3 1.34530(10) 1_555 18_455
C4 O4 1.36000(10) 1_555 1_555
C4 C2 1.37770(10) 1_555 1_555
C4 C2 2.3552(2) 1_555 18_455
C4 C3 2.3862(2) 1_555 1_555
C4 C1 2.5013(2) 1_555 1_555
C4 C5 2.5343(2) 1_555 1_555
C4 C4 2.7343(2) 1_555 18_455
C4 O3 2.83451 1_555 1_555
C4 O3A 2.95121 1_555 1_555
O2 C1 1.26138 1_555 1_555
O2 O2A 1.49374 1_555 1_555
O2 O3A 1.64664 1_555 1_555
O2 Zn2 1.99877 1_555 5_555
O2 O3 2.25651 1_555 1_555
O2 C2 2.36566 1_555 1_555
O2 Zn2 2.46870 1_555 1_555
O2 Zn1 2.76738 1_555 1_555
O2 C3 2.79653 1_555 1_555
O2 O2A 3.08618 1_555 5_555
O2 O3 3.14211 1_555 3_555
O2 O1 3.17966 1_555 1_555
O2A C1 1.32005 1_555 1_555
O2A O2 1.49374 1_555 1_555
O2A O3 1.50738 1_555 1_555
O2A Zn2 1.91222 1_555 1_555
O2A O3A 2.33341 1_555 1_555
O2A C2 2.37294 1_555 1_555
O2A Zn2 2.59777 1_555 4_555
O2A Zn2 2.82317 1_555 5_555
O2A C3 2.93605 1_555 1_555
O2A O2 3.08618 1_555 4_555
O3 C1 1.27580 1_555 1_555
O3 O2A 1.50738 1_555 1_555
O3 O3A 1.86469 1_555 1_555
O3 Zn2 2.01380 1_555 4_555
O3 O2 2.25651 1_555 1_555
O3 C2 2.30192 1_555 1_555
O3 Zn1 2.64185 1_555 1_555
O3 O4 2.64481 1_555 1_555
O3 Zn2 2.72413 1_555 1_555
O3 C4 2.83451 1_555 1_555
O3 O3A 3.10843 1_555 2_555
O3 O2 3.14211 1_555 2_555
O3A C1 1.23835 1_555 1_555
O3A O2 1.64664 1_555 1_555
O3A O3 1.86469 1_555 1_555
O3A Zn1 1.91108 1_555 1_555
O3A C2 2.28287 1_555 1_555
O3A O2A 2.33341 1_555 1_555
O3A Zn2 2.71460 1_555 5_555
O3A O4 2.91512 1_555 1_555
O3A C4 2.95121 1_555 1_555
O3A O3A 2.95401 1_555 3_555
O3A O3A 2.95401 1_555 2_555
O3A Zn2 3.06122 1_555 4_555
O3A O3 3.10843 1_555 3_555
O4 C4 1.36000(10) 1_555 1_555
O4 C5 1.45010(10) 1_555 1_555
O4 C3 2.3533(2) 1_555 18_455
O4 C2 2.3574(2) 1_555 1_555
O4 C6 2.3990(2) 1_555 1_555
O4 O3 2.64481 1_555 1_555
O4 C1 2.8100(2) 1_555 1_555
O4 O3A 2.91512 1_555 1_555
C5 O4 1.45010(10) 1_555 1_555
C5 C6 1.51000(10) 1_555 1_555
C5 C7 2.4544(2) 1_555 1_555
C5 C4 2.5343(2) 1_555 1_555
C5 C3 3.0439(2) 1_555 18_455
C6 C7 1.50990(2) 1_555 1_555
C6 C5 1.51000(10) 1_555 1_555
C6 O4 2.3990(2) 1_555 1_555
C6 C8 2.4488(2) 1_555 1_555
C7 C8 1.50990(10) 1_555 1_555
C7 C6 1.50990(10) 1_555 1_555
C7 C5 2.4544(2) 1_555 1_555
C7 C9 2.4591(2) 1_555 1_555
C8 C7 1.50990(10) 1_555 1_555
C8 C9 1.51000(10) 1_555 1_555
C8 C6 2.4488(2) 1_555 1_555
C8 C10 2.4889(2) 1_555 1_555
C9 C8 1.51000(10) 1_555 1_555
C9 C10 1.54990(10) 1_555 1_555
C9 C7 2.4591(2) 1_555 1_555
C9 C11 2.5335(2) 1_555 1_555
C10 C9 1.54990(10) 1_555 1_555
C10 C11 1.55010(10) 1_555 1_555
C10 C8 2.4889(2) 1_555 1_555
C11 C10 1.55010(10) 1_555 1_555
C11 C9 2.5335(2) 1_555 1_555
loop_
_geom_angle_atom_site_label_1
_geom_angle_atom_site_label_2
_geom_angle_atom_site_label_3
_geom_angle
_geom_angle_site_symmetry_1
_geom_angle_site_symmetry_2
_geom_angle_site_symmetry_3
O3A Zn1 O3A 101.223 2_555 1_555 3_555
O3A Zn1 O3A 101.223 1_555 1_555 2_555
O3A Zn1 O3A 101.223 1_555 1_555 3_555
O1 Zn1 O3A 116.820 1_555 1_555 1_555
O1 Zn1 O3A 116.820 1_555 1_555 2_555
O1 Zn1 O3A 116.820 1_555 1_555 3_555
Zn2 Zn1 O1 53.643 4_555 1_555 1_555
Zn2 Zn1 O3A 91.476 4_555 1_555 1_555
Zn2 Zn1 O3A 78.590 4_555 1_555 2_555
Zn2 Zn1 O3A 167.032 4_555 1_555 3_555
Zn2 Zn1 Zn2 88.445 5_555 1_555 4_555
Zn2 Zn1 O1 53.643 5_555 1_555 1_555
Zn2 Zn1 O3A 78.590 5_555 1_555 1_555
Zn2 Zn1 O3A 167.032 5_555 1_555 2_555
Zn2 Zn1 O3A 91.476 5_555 1_555 3_555
Zn2 Zn1 Zn2 88.445 6_555 1_555 5_555
Zn2 Zn1 Zn2 88.445 6_555 1_555 4_555
Zn2 Zn1 O1 53.643 6_555 1_555 1_555
Zn2 Zn1 O3A 167.032 6_555 1_555 1_555
Zn2 Zn1 O3A 91.476 6_555 1_555 2_555
Zn2 Zn1 O3A 78.590 6_555 1_555 3_555
O3 Zn1 Zn2 135.415 1_555 1_555 6_555
O3 Zn1 Zn2 86.470 1_555 1_555 5_555
O3 Zn1 Zn2 47.187 1_555 1_555 4_555
O3 Zn1 O1 89.067 1_555 1_555 1_555
O3 Zn1 O3A 44.884 1_555 1_555 1_555
O3 Zn1 O3A 84.491 1_555 1_555 2_555
O3 Zn1 O3A 145.749 1_555 1_555 3_555
O3 Zn1 O3 119.974 3_555 1_555 1_555
O3 Zn1 Zn2 86.470 3_555 1_555 6_555
O3 Zn1 Zn2 47.187 3_555 1_555 5_555
O3 Zn1 Zn2 135.415 3_555 1_555 4_555
O3 Zn1 O1 89.067 3_555 1_555 1_555
O3 Zn1 O3A 84.491 3_555 1_555 1_555
O3 Zn1 O3A 145.749 3_555 1_555 2_555
O3 Zn1 O3A 44.884 3_555 1_555 3_555
O3 Zn1 O3 119.974 2_555 1_555 3_555
O3 Zn1 O3 119.974 2_555 1_555 1_555
O3 Zn1 Zn2 47.187 2_555 1_555 6_555
O3 Zn1 Zn2 135.415 2_555 1_555 5_555
O3 Zn1 Zn2 86.470 2_555 1_555 4_555
O3 Zn1 O1 89.067 2_555 1_555 1_555
O3 Zn1 O3A 145.749 2_555 1_555 1_555
O3 Zn1 O3A 44.884 2_555 1_555 2_555
O3 Zn1 O3A 84.491 2_555 1_555 3_555
C1 Zn1 O3 93.888 3_555 1_555 2_555
C1 Zn1 O3 27.194 3_555 1_555 3_555
C1 Zn1 O3 145.817 3_555 1_555 1_555
C1 Zn1 Zn2 70.667 3_555 1_555 6_555
C1 Zn1 Zn2 70.505 3_555 1_555 5_555
C1 Zn1 Zn2 150.196 3_555 1_555 4_555
C1 Zn1 O1 96.553 3_555 1_555 1_555
C1 Zn1 O3A 104.187 3_555 1_555 1_555
C1 Zn1 O3A 121.587 3_555 1_555 2_555
C1 Zn1 O3A 22.577 3_555 1_555 3_555
C1 Zn1 C1 118.716 2_555 1_555 3_555
C1 Zn1 O3 27.194 2_555 1_555 2_555
C1 Zn1 O3 145.817 2_555 1_555 3_555
C1 Zn1 O3 93.888 2_555 1_555 1_555
C1 Zn1 Zn2 70.505 2_555 1_555 6_555
C1 Zn1 Zn2 150.196 2_555 1_555 5_555
C1 Zn1 Zn2 70.667 2_555 1_555 4_555
C1 Zn1 O1 96.553 2_555 1_555 1_555
C1 Zn1 O3A 121.587 2_555 1_555 1_555
C1 Zn1 O3A 22.577 2_555 1_555 2_555
C1 Zn1 O3A 104.187 2_555 1_555 3_555
C1 Zn1 C1 118.716 1_555 1_555 2_555
C1 Zn1 C1 118.716 1_555 1_555 3_555
C1 Zn1 O3 145.817 1_555 1_555 2_555
C1 Zn1 O3 93.888 1_555 1_555 3_555
C1 Zn1 O3 27.194 1_555 1_555 1_555
C1 Zn1 Zn2 150.196 1_555 1_555 6_555
C1 Zn1 Zn2 70.667 1_555 1_555 5_555
C1 Zn1 Zn2 70.505 1_555 1_555 4_555
C1 Zn1 O1 96.553 1_555 1_555 1_555
C1 Zn1 O3A 22.577 1_555 1_555 1_555
C1 Zn1 O3A 104.187 1_555 1_555 2_555
C1 Zn1 O3A 121.587 1_555 1_555 3_555
O2 Zn1 C1 143.104 3_555 1_555 1_555
O2 Zn1 C1 97.827 3_555 1_555 2_555
O2 Zn1 C1 26.372 3_555 1_555 3_555
O2 Zn1 O3 70.981 3_555 1_555 2_555
O2 Zn1 O3 49.243 3_555 1_555 3_555
O2 Zn1 O3 166.659 3_555 1_555 1_555
O2 Zn1 Zn2 45.106 3_555 1_555 6_555
O2 Zn1 Zn2 80.192 3_555 1_555 5_555
O2 Zn1 Zn2 131.947 3_555 1_555 4_555
O2 Zn1 O1 83.293 3_555 1_555 1_555
O2 Zn1 O3A 130.559 3_555 1_555 1_555
O2 Zn1 O3A 108.713 3_555 1_555 2_555
O2 Zn1 O3A 35.612 3_555 1_555 3_555
O2 Zn1 O2 118.655 2_555 1_555 3_555
O2 Zn1 C1 97.827 2_555 1_555 1_555
O2 Zn1 C1 26.372 2_555 1_555 2_555
O2 Zn1 C1 143.104 2_555 1_555 3_555
O2 Zn1 O3 49.243 2_555 1_555 2_555
O2 Zn1 O3 166.659 2_555 1_555 3_555
O2 Zn1 O3 70.981 2_555 1_555 1_555
O2 Zn1 Zn2 80.192 2_555 1_555 6_555
O2 Zn1 Zn2 131.947 2_555 1_555 5_555
O2 Zn1 Zn2 45.106 2_555 1_555 4_555
O2 Zn1 O1 83.293 2_555 1_555 1_555
O2 Zn1 O3A 108.713 2_555 1_555 1_555
O2 Zn1 O3A 35.612 2_555 1_555 2_555
O2 Zn1 O3A 130.559 2_555 1_555 3_555
O2 Zn1 O2 118.655 1_555 1_555 2_555
O2 Zn1 O2 118.655 1_555 1_555 3_555
O2 Zn1 C1 26.372 1_555 1_555 1_555
O2 Zn1 C1 143.104 1_555 1_555 2_555
O2 Zn1 C1 97.827 1_555 1_555 3_555
O2 Zn1 O3 166.659 1_555 1_555 2_555
O2 Zn1 O3 70.981 1_555 1_555 3_555
O2 Zn1 O3 49.243 1_555 1_555 1_555
O2 Zn1 Zn2 131.947 1_555 1_555 6_555
O2 Zn1 Zn2 45.106 1_555 1_555 5_555
O2 Zn1 Zn2 80.192 1_555 1_555 4_555
O2 Zn1 O1 83.293 1_555 1_555 1_555
O2 Zn1 O3A 35.612 1_555 1_555 1_555
O2 Zn1 O3A 130.559 1_555 1_555 2_555
O2 Zn1 O3A 108.713 1_555 1_555 3_555
Zn2 Zn1 O2 49.405 1_555 1_555 1_555
Zn2 Zn1 O2 89.077 1_555 1_555 2_555
Zn2 Zn1 O2 112.892 1_555 1_555 3_555
Zn2 Zn1 C1 59.014 1_555 1_555 1_555
Zn2 Zn1 C1 113.213 1_555 1_555 2_555
Zn2 Zn1 C1 113.088 1_555 1_555 3_555
Zn2 Zn1 O3 119.601 1_555 1_555 2_555
Zn2 Zn1 O3 91.510 1_555 1_555 3_555
Zn2 Zn1 O3 56.010 1_555 1_555 1_555
Zn2 Zn1 Zn2 91.182 1_555 1_555 6_555
Zn2 Zn1 Zn2 44.323 1_555 1_555 5_555
Zn2 Zn1 Zn2 44.323 1_555 1_555 4_555
Zn2 Zn1 O1 37.539 1_555 1_555 1_555
Zn2 Zn1 O3A 79.797 1_555 1_555 1_555
Zn2 Zn1 O3A 122.728 1_555 1_555 2_555
Zn2 Zn1 O3A 135.219 1_555 1_555 3_555
Zn2 Zn1 Zn2 63.696 3_555 1_555 1_555
Zn2 Zn1 O2 89.077 3_555 1_555 1_555
Zn2 Zn1 O2 112.892 3_555 1_555 2_555
Zn2 Zn1 O2 49.405 3_555 1_555 3_555
Zn2 Zn1 C1 113.213 3_555 1_555 1_555
Zn2 Zn1 C1 113.088 3_555 1_555 2_555
Zn2 Zn1 C1 59.014 3_555 1_555 3_555
Zn2 Zn1 O3 91.510 3_555 1_555 2_555
Zn2 Zn1 O3 56.010 3_555 1_555 3_555
Zn2 Zn1 O3 119.601 3_555 1_555 1_555
Zn2 Zn1 Zn2 44.323 3_555 1_555 6_555
Zn2 Zn1 Zn2 44.323 3_555 1_555 5_555
Zn2 Zn1 Zn2 91.182 3_555 1_555 4_555
Zn2 Zn1 O1 37.539 3_555 1_555 1_555
Zn2 Zn1 O3A 122.728 3_555 1_555 1_555
Zn2 Zn1 O3A 135.219 3_555 1_555 2_555
Zn2 Zn1 O3A 79.797 3_555 1_555 3_555
Zn2 Zn1 Zn2 63.696 2_555 1_555 3_555
Zn2 Zn1 Zn2 63.696 2_555 1_555 1_555
Zn2 Zn1 O2 112.892 2_555 1_555 1_555
Zn2 Zn1 O2 49.405 2_555 1_555 2_555
Zn2 Zn1 O2 89.077 2_555 1_555 3_555
Zn2 Zn1 C1 113.088 2_555 1_555 1_555
Zn2 Zn1 C1 59.014 2_555 1_555 2_555
Zn2 Zn1 C1 113.213 2_555 1_555 3_555
Zn2 Zn1 O3 56.010 2_555 1_555 2_555
Zn2 Zn1 O3 119.601 2_555 1_555 3_555
Zn2 Zn1 O3 91.510 2_555 1_555 1_555
Zn2 Zn1 Zn2 44.323 2_555 1_555 6_555
Zn2 Zn1 Zn2 91.182 2_555 1_555 5_555
Zn2 Zn1 Zn2 44.323 2_555 1_555 4_555
Zn2 Zn1 O1 37.539 2_555 1_555 1_555
Zn2 Zn1 O3A 135.219 2_555 1_555 1_555
Zn2 Zn1 O3A 79.797 2_555 1_555 2_555
Zn2 Zn1 O3A 122.728 2_555 1_555 3_555
O1 Zn2 O2A 112.041 1_555 1_555 1_555
O2 Zn2 O1 106.845 4_555 1_555 1_555
O2 Zn2 O2A 104.182 4_555 1_555 1_555
O3 Zn2 O2 103.084 5_555 1_555 4_555
O3 Zn2 O1 109.293 5_555 1_555 1_555
O3 Zn2 O2A 120.078 5_555 1_555 1_555
Zn2 Zn2 O3 160.859 4_555 1_555 5_555
Zn2 Zn2 O2 72.553 4_555 1_555 4_555
Zn2 Zn2 O1 56.447 4_555 1_555 1_555
Zn2 Zn2 O2A 78.833 4_555 1_555 1_555
Zn2 Zn2 Zn2 97.859 5_555 1_555 4_555
Zn2 Zn2 O3 81.226 5_555 1_555 5_555
Zn2 Zn2 O2 162.844 5_555 1_555 4_555
Zn2 Zn2 O1 56.447 5_555 1_555 1_555
Zn2 Zn2 O2A 87.349 5_555 1_555 1_555
Zn1 Zn2 Zn2 86.629 4_555 1_555 5_555
Zn1 Zn2 Zn2 86.629 4_555 1_555 4_555
Zn1 Zn2 O3 74.231 4_555 1_555 5_555
Zn1 Zn2 O2 78.763 4_555 1_555 4_555
Zn1 Zn2 O1 52.140 4_555 1_555 1_555
Zn1 Zn2 O2A 163.345 4_555 1_555 1_555
O2 Zn2 Zn1 136.339 1_555 1_555 4_555
O2 Zn2 Zn2 50.570 1_555 1_555 5_555
O2 Zn2 Zn2 90.784 1_555 1_555 4_555
O2 Zn2 O3 102.912 1_555 1_555 5_555
O2 Zn2 O2 141.185 1_555 1_555 4_555
O2 Zn2 O1 91.017 1_555 1_555 1_555
O2 Zn2 O2A 37.206 1_555 1_555 1_555
O2A Zn2 O2 75.006 5_555 1_555 1_555
O2A Zn2 Zn1 80.791 5_555 1_555 4_555
O2A Zn2 Zn2 46.233 5_555 1_555 5_555
O2A Zn2 Zn2 142.230 5_555 1_555 4_555
O2A Zn2 O3 35.371 5_555 1_555 5_555
O2A Zn2 O2 137.787 5_555 1_555 4_555
O2A Zn2 O1 88.436 5_555 1_555 1_555
O2A Zn2 O2A 105.880 5_555 1_555 1_555
O3A Zn2 O2A 108.073 4_555 1_555 5_555
O3A Zn2 O2 176.286 4_555 1_555 1_555
O3A Zn2 Zn1 43.637 4_555 1_555 4_555
O3A Zn2 Zn2 130.061 4_555 1_555 5_555
O3A Zn2 Zn2 85.504 4_555 1_555 4_555
O3A Zn2 O3 80.725 4_555 1_555 5_555
O3A Zn2 O2 37.121 4_555 1_555 4_555
O3A Zn2 O1 87.028 4_555 1_555 1_555
O3A Zn2 O2A 141.300 4_555 1_555 1_555
O3 Zn2 O3A 125.415 1_555 1_555 4_555
O3 Zn2 O2A 125.720 1_555 1_555 5_555
O3 Zn2 O2 51.224 1_555 1_555 1_555
O3 Zn2 Zn1 131.854 1_555 1_555 4_555
O3 Zn2 Zn2 87.998 1_555 1_555 5_555
O3 Zn2 Zn2 46.936 1_555 1_555 4_555
O3 Zn2 O3 151.302 1_555 1_555 5_555
O3 Zn2 O2 95.035 1_555 1_555 4_555
O3 Zn2 O1 85.938 1_555 1_555 1_555
O3 Zn2 O2A 32.309 1_555 1_555 1_555
O2A Zn2 O3 75.623 4_555 1_555 1_555
O2A Zn2 O3A 49.794 4_555 1_555 4_555
O2A Zn2 O2A 156.149 4_555 1_555 5_555
O2A Zn2 O2 126.798 4_555 1_555 1_555
O2A Zn2 Zn1 76.136 4_555 1_555 4_555
O2A Zn2 Zn2 136.666 4_555 1_555 5_555
O2A Zn2 Zn2 42.579 4_555 1_555 4_555
O2A Zn2 O3 129.203 4_555 1_555 5_555
O2A Zn2 O2 30.400 4_555 1_555 4_555
O2A Zn2 O1 82.213 4_555 1_555 1_555
O2A Zn2 O2A 97.968 4_555 1_555 1_555
C1 Zn2 O2A 101.520 1_555 1_555 4_555
C1 Zn2 O3 25.979 1_555 1_555 1_555
C1 Zn2 O3A 151.225 1_555 1_555 4_555
C1 Zn2 O2A 100.596 1_555 1_555 5_555
C1 Zn2 O2 25.592 1_555 1_555 1_555
C1 Zn2 Zn1 143.554 1_555 1_555 4_555
C1 Zn2 Zn2 70.120 1_555 1_555 5_555
C1 Zn2 Zn2 69.953 1_555 1_555 4_555
C1 Zn2 O3 126.444 1_555 1_555 5_555
C1 Zn2 O2 117.599 1_555 1_555 4_555
C1 Zn2 O1 91.414 1_555 1_555 1_555
C1 Zn2 O2A 21.425 1_555 1_555 1_555
C1 Zn2 C1 126.946 5_555 1_555 1_555
C1 Zn2 O2A 131.056 5_555 1_555 4_555
C1 Zn2 O3 151.999 5_555 1_555 1_555
C1 Zn2 O3A 81.795 5_555 1_555 4_555
C1 Zn2 O2A 26.396 5_555 1_555 5_555
C1 Zn2 O2 101.356 5_555 1_555 1_555
C1 Zn2 Zn1 61.379 5_555 1_555 4_555
C1 Zn2 Zn2 66.704 5_555 1_555 5_555
C1 Zn2 Zn2 144.212 5_555 1_555 4_555
C1 Zn2 O3 19.999 5_555 1_555 5_555
C1 Zn2 O2 112.700 5_555 1_555 4_555
C1 Zn2 O1 89.472 5_555 1_555 1_555
C1 Zn2 O2A 129.371 5_555 1_555 1_555
C1 Zn2 C1 106.334 4_555 1_555 5_555
C1 Zn2 C1 126.719 4_555 1_555 1_555
C1 Zn2 O2A 26.171 4_555 1_555 4_555
C1 Zn2 O3 101.221 4_555 1_555 1_555
C1 Zn2 O3A 24.622 4_555 1_555 4_555
C1 Zn2 O2A 132.673 4_555 1_555 5_555
C1 Zn2 O2 152.310 4_555 1_555 1_555
C1 Zn2 Zn1 61.279 4_555 1_555 4_555
C1 Zn2 Zn2 144.057 4_555 1_555 5_555
C1 Zn2 Zn2 66.586 4_555 1_555 4_555
C1 Zn2 O3 103.084 4_555 1_555 5_555
C1 Zn2 O2 18.947 4_555 1_555 4_555
C1 Zn2 O1 89.304 4_555 1_555 1_555
C1 Zn2 O2A 118.596 4_555 1_555 1_555
O3A Zn2 C1 85.611 5_555 1_555 4_555
O3A Zn2 C1 23.644 5_555 1_555 5_555
O3A Zn2 C1 146.123 5_555 1_555 1_555
O3A Zn2 O2A 108.490 5_555 1_555 4_555
O3A Zn2 O3 162.250 5_555 1_555 1_555
O3A Zn2 O3A 61.172 5_555 1_555 4_555
O3A Zn2 O2A 47.843 5_555 1_555 5_555
O3A Zn2 O2 121.462 5_555 1_555 1_555
O3A Zn2 Zn1 38.615 5_555 1_555 4_555
O3A Zn2 Zn2 77.268 5_555 1_555 5_555
O3A Zn2 Zn2 124.801 5_555 1_555 4_555
O3A Zn2 O3 36.199 5_555 1_555 5_555
O3A Zn2 O2 96.277 5_555 1_555 4_555
O3A Zn2 O1 77.716 5_555 1_555 1_555
O3A Zn2 O2A 152.989 5_555 1_555 1_555
Zn1 Zn2 O3A 108.768 1_555 1_555 5_555
Zn1 Zn2 C1 110.376 1_555 1_555 4_555
Zn1 Zn2 C1 110.533 1_555 1_555 5_555
Zn1 Zn2 C1 54.736 1_555 1_555 1_555
Zn1 Zn2 O2A 90.557 1_555 1_555 4_555
Zn1 Zn2 O3 53.522 1_555 1_555 1_555
Zn1 Zn2 O3A 118.809 1_555 1_555 4_555
Zn1 Zn2 O2A 94.963 1_555 1_555 5_555
Zn1 Zn2 O2 58.342 1_555 1_555 1_555
Zn1 Zn2 Zn1 88.818 1_555 1_555 4_555
Zn1 Zn2 Zn2 49.048 1_555 1_555 5_555
Zn1 Zn2 Zn2 49.048 1_555 1_555 4_555
Zn1 Zn2 O3 128.609 1_555 1_555 5_555
Zn1 Zn2 O2 120.957 1_555 1_555 4_555
Zn1 Zn2 O1 36.678 1_555 1_555 1_555
Zn1 Zn2 O2A 75.546 1_555 1_555 1_555
Zn1 O1 Zn1 180.000 4_555 1_555 1_555
Zn2 O1 Zn1 74.217 3_555 1_555 4_555
Zn2 O1 Zn1 105.783 3_555 1_555 1_555
Zn2 O1 Zn2 180.000 4_555 1_555 3_555
Zn2 O1 Zn1 105.783 4_555 1_555 4_555
Zn2 O1 Zn1 74.217 4_555 1_555 1_555
Zn2 O1 Zn2 112.894 6_555 1_555 4_555
Zn2 O1 Zn2 67.106 6_555 1_555 3_555
Zn2 O1 Zn1 105.783 6_555 1_555 4_555
Zn2 O1 Zn1 74.217 6_555 1_555 1_555
Zn2 O1 Zn2 180.000 1_555 1_555 6_555
Zn2 O1 Zn2 67.106 1_555 1_555 4_555
Zn2 O1 Zn2 112.894 1_555 1_555 3_555
Zn2 O1 Zn1 74.217 1_555 1_555 4_555
Zn2 O1 Zn1 105.783 1_555 1_555 1_555
Zn2 O1 Zn2 67.106 5_555 1_555 1_555
Zn2 O1 Zn2 112.894 5_555 1_555 6_555
Zn2 O1 Zn2 112.894 5_555 1_555 4_555
Zn2 O1 Zn2 67.106 5_555 1_555 3_555
Zn2 O1 Zn1 105.783 5_555 1_555 4_555
Zn2 O1 Zn1 74.217 5_555 1_555 1_555
Zn2 O1 Zn2 180.000 2_555 1_555 5_555
Zn2 O1 Zn2 112.894 2_555 1_555 1_555
Zn2 O1 Zn2 67.106 2_555 1_555 6_555
Zn2 O1 Zn2 67.106 2_555 1_555 4_555
Zn2 O1 Zn2 112.894 2_555 1_555 3_555
Zn2 O1 Zn1 74.217 2_555 1_555 4_555
Zn2 O1 Zn1 105.783 2_555 1_555 1_555
O2 O1 Zn2 129.079 5_555 1_555 2_555
O2 O1 Zn2 50.921 5_555 1_555 5_555
O2 O1 Zn2 76.000 5_555 1_555 1_555
O2 O1 Zn2 104.000 5_555 1_555 6_555
O2 O1 Zn2 143.013 5_555 1_555 4_555
O2 O1 Zn2 36.987 5_555 1_555 3_555
O2 O1 Zn1 59.812 5_555 1_555 4_555
O2 O1 Zn1 120.188 5_555 1_555 1_555
O2 O1 O2 180.000 2_555 1_555 5_555
O2 O1 Zn2 50.921 2_555 1_555 2_555
O2 O1 Zn2 129.079 2_555 1_555 5_555
O2 O1 Zn2 104.000 2_555 1_555 1_555
O2 O1 Zn2 76.000 2_555 1_555 6_555
O2 O1 Zn2 36.987 2_555 1_555 4_555
O2 O1 Zn2 143.013 2_555 1_555 3_555
O2 O1 Zn1 120.188 2_555 1_555 4_555
O2 O1 Zn1 59.812 2_555 1_555 1_555
O2 O1 O2 96.935 3_555 1_555 2_555
O2 O1 O2 83.065 3_555 1_555 5_555
O2 O1 Zn2 104.000 3_555 1_555 2_555
O2 O1 Zn2 76.000 3_555 1_555 5_555
O2 O1 Zn2 143.013 3_555 1_555 1_555
O2 O1 Zn2 36.987 3_555 1_555 6_555
O2 O1 Zn2 129.079 3_555 1_555 4_555
O2 O1 Zn2 50.921 3_555 1_555 3_555
O2 O1 Zn1 120.188 3_555 1_555 4_555
O2 O1 Zn1 59.812 3_555 1_555 1_555
O2 O1 O2 180.000 4_555 1_555 3_555
O2 O1 O2 83.065 4_555 1_555 2_555
O2 O1 O2 96.935 4_555 1_555 5_555
O2 O1 Zn2 76.000 4_555 1_555 2_555
O2 O1 Zn2 104.000 4_555 1_555 5_555
O2 O1 Zn2 36.987 4_555 1_555 1_555
O2 O1 Zn2 143.013 4_555 1_555 6_555
O2 O1 Zn2 50.921 4_555 1_555 4_555
O2 O1 Zn2 129.079 4_555 1_555 3_555
O2 O1 Zn1 59.812 4_555 1_555 4_555
O2 O1 Zn1 120.188 4_555 1_555 1_555
O2 O1 O2 83.065 1_555 1_555 4_555
O2 O1 O2 96.935 1_555 1_555 3_555
O2 O1 O2 96.935 1_555 1_555 2_555
O2 O1 O2 83.065 1_555 1_555 5_555
O2 O1 Zn2 143.013 1_555 1_555 2_555
O2 O1 Zn2 36.987 1_555 1_555 5_555
O2 O1 Zn2 50.921 1_555 1_555 1_555
O2 O1 Zn2 129.079 1_555 1_555 6_555
O2 O1 Zn2 76.000 1_555 1_555 4_555
O2 O1 Zn2 104.000 1_555 1_555 3_555
O2 O1 Zn1 120.188 1_555 1_555 4_555
O2 O1 Zn1 59.812 1_555 1_555 1_555
O2 O1 O2 180.000 6_555 1_555 1_555
O2 O1 O2 96.935 6_555 1_555 4_555
O2 O1 O2 83.065 6_555 1_555 3_555
O2 O1 O2 83.065 6_555 1_555 2_555
O2 O1 O2 96.935 6_555 1_555 5_555
O2 O1 Zn2 36.987 6_555 1_555 2_555
O2 O1 Zn2 143.013 6_555 1_555 5_555
O2 O1 Zn2 129.079 6_555 1_555 1_555
O2 O1 Zn2 50.921 6_555 1_555 6_555
O2 O1 Zn2 104.000 6_555 1_555 4_555
O2 O1 Zn2 76.000 6_555 1_555 3_555
O2 O1 Zn1 59.812 6_555 1_555 4_555
O2 O1 Zn1 120.188 6_555 1_555 1_555
O2 C1 O3A 82.400 1_555 1_555 1_555
O3 C1 O2 125.589 1_555 1_555 1_555
O3 C1 O3A 95.737 1_555 1_555 1_555
O2A C1 O3 70.975 1_555 1_555 1_555
O2A C1 O2 70.670 1_555 1_555 1_555
O2A C1 O3A 131.556 1_555 1_555 1_555
C2 C1 O2A 114.978 1_555 1_555 1_555
C2 C1 O3 112.326 1_555 1_555 1_555
C2 C1 O2 118.229 1_555 1_555 1_555
C2 C1 O3A 113.154 1_555 1_555 1_555
C3 C1 C2 29.29(1) 1_555 1_555 1_555
C3 C1 O2A 96.858 1_555 1_555 1_555
C3 C1 O3 130.415 1_555 1_555 1_555
C3 C1 O2 91.198 1_555 1_555 1_555
C3 C1 O3A 123.880 1_555 1_555 1_555
C4 C1 C3 57.37(1) 1_555 1_555 1_555
C4 C1 C2 28.09(1) 1_555 1_555 1_555
C4 C1 O2A 127.200 1_555 1_555 1_555
C4 C1 O3 91.351 1_555 1_555 1_555
C4 C1 O2 142.918 1_555 1_555 1_555
C4 C1 O3A 98.539 1_555 1_555 1_555
Zn1 C1 C4 124.188 1_555 1_555 1_555
Zn1 C1 C3 157.469 1_555 1_555 1_555
Zn1 C1 C2 147.198 1_555 1_555 1_555
Zn1 C1 O2A 97.220 1_555 1_555 1_555
Zn1 C1 O3 71.143 1_555 1_555 1_555
Zn1 C1 O2 77.043 1_555 1_555 1_555
Zn1 C1 O3A 36.335 1_555 1_555 1_555
O4 C1 Zn1 98.057 1_555 1_555 1_555
O4 C1 C4 28.93(1) 1_555 1_555 1_555
O4 C1 C3 86.29(1) 1_555 1_555 1_555
O4 C1 C2 57.02(1) 1_555 1_555 1_555
O4 C1 O2A 129.652 1_555 1_555 1_555
O4 C1 O3 69.349 1_555 1_555 1_555
O4 C1 O2 159.677 1_555 1_555 1_555
O4 C1 O3A 82.307 1_555 1_555 1_555
Zn2 C1 O4 138.568 1_555 1_555 1_555
Zn2 C1 Zn1 66.250 1_555 1_555 1_555
Zn2 C1 C4 154.592 1_555 1_555 1_555
Zn2 C1 C3 123.279 1_555 1_555 1_555
Zn2 C1 C2 146.492 1_555 1_555 1_555
Zn2 C1 O2A 31.947 1_555 1_555 1_555
Zn2 C1 O3 69.282 1_555 1_555 1_555
Zn2 C1 O2 57.717 1_555 1_555 1_555
Zn2 C1 O3A 99.610 1_555 1_555 1_555
Zn2 C1 Zn2 43.343 4_555 1_555 1_555
Zn2 C1 O4 96.984 4_555 1_555 1_555
Zn2 C1 Zn1 48.115 4_555 1_555 1_555
Zn2 C1 C4 122.782 4_555 1_555 1_555
Zn2 C1 C3 153.598 4_555 1_555 1_555
Zn2 C1 C2 144.855 4_555 1_555 1_555
Zn2 C1 O2A 61.030 4_555 1_555 1_555
Zn2 C1 O3 32.672 4_555 1_555 1_555
Zn2 C1 O2 94.198 4_555 1_555 1_555
Zn2 C1 O3A 82.480 4_555 1_555 1_555
Zn2 C1 Zn2 66.773 5_555 1_555 4_555
Zn2 C1 Zn2 43.294 5_555 1_555 1_555
Zn2 C1 O4 145.460 5_555 1_555 1_555
Zn2 C1 Zn1 48.054 5_555 1_555 1_555
Zn2 C1 C4 161.773 5_555 1_555 1_555
Zn2 C1 C3 122.155 5_555 1_555 1_555
Zn2 C1 C2 147.929 5_555 1_555 1_555
Zn2 C1 O2A 70.605 5_555 1_555 1_555
Zn2 C1 O3 99.445 5_555 1_555 1_555
Zn2 C1 O2 30.964 5_555 1_555 1_555
Zn2 C1 O3A 65.967 5_555 1_555 1_555
C3 C2 C4 120.00(1) 1_555 1_555 1_555
C1 C2 C3 118.73(1) 1_555 1_555 1_555
C1 C2 C4 121.26(1) 1_555 1_555 1_555
O3A C2 C1 29.918 1_555 1_555 1_555
O3A C2 C3 128.698 1_555 1_555 1_555
O3A C2 C4 104.737 1_555 1_555 1_555
O3 C2 O3A 47.995 1_555 1_555 1_555
O3 C2 C1 30.843 1_555 1_555 1_555
O3 C2 C3 136.688 1_555 1_555 1_555
O3 C2 C4 97.589 1_555 1_555 1_555
C4 C2 O3 157.328 18_455 1_555 1_555
C4 C2 O3A 149.244 18_455 1_555 1_555
C4 C2 C1 148.460 18_455 1_555 1_555
C4 C2 C3 29.737 18_455 1_555 1_555
C4 C2 C4 90.278 18_455 1_555 1_555
O4 C2 C4 120.614 1_555 1_555 18_455
O4 C2 O3 69.159 1_555 1_555 1_555
O4 C2 O3A 77.820 1_555 1_555 1_555
O4 C2 C1 90.92(1) 1_555 1_555 1_555
O4 C2 C3 150.30(1) 1_555 1_555 1_555
O4 C2 C4 30.34(1) 1_555 1_555 1_555
C3 C2 O4 59.834 18_455 1_555 1_555
C3 C2 C4 60.791 18_455 1_555 18_455
C3 C2 O3 124.952 18_455 1_555 1_555
C3 C2 O3A 129.853 18_455 1_555 1_555
C3 C2 C1 150.748 18_455 1_555 1_555
C3 C2 C3 90.522 18_455 1_555 1_555
C3 C2 C4 29.493 18_455 1_555 1_555
O2 C2 C3 168.285 1_555 1_555 18_455
O2 C2 O4 116.524 1_555 1_555 1_555
O2 C2 C4 121.831 1_555 1_555 18_455
O2 C2 O3 57.802 1_555 1_555 1_555
O2 C2 O3A 41.444 1_555 1_555 1_555
O2 C2 C1 28.020 1_555 1_555 1_555
O2 C2 C3 92.867 1_555 1_555 1_555
O2 C2 C4 145.736 1_555 1_555 1_555
O2A C2 O2 36.749 1_555 1_555 1_555
O2A C2 C3 152.990 1_555 1_555 18_455
O2A C2 O4 106.536 1_555 1_555 1_555
O2A C2 C4 126.266 1_555 1_555 18_455
O2A C2 O3 37.583 1_555 1_555 1_555
O2A C2 O3A 60.119 1_555 1_555 1_555
O2A C2 C1 30.282 1_555 1_555 1_555
O2A C2 C3 99.608 1_555 1_555 1_555
O2A C2 C4 133.041 1_555 1_555 1_555
C2 C2 O2A 148.984 18_455 1_555 1_555
C2 C2 O2 150.973 18_455 1_555 1_555
C2 C2 C3 30.398 18_455 1_555 18_455
C2 C2 O4 90.219 18_455 1_555 1_555
C2 C2 C4 30.397 18_455 1_555 18_455
C2 C2 O3 149.880 18_455 1_555 1_555
C2 C2 O3A 150.698 18_455 1_555 1_555
C2 C2 C1 178.850 18_455 1_555 1_555
C2 C2 C3 60.125 18_455 1_555 1_555
C2 C2 C4 59.881 18_455 1_555 1_555
C2 C3 C4 119.734 1_555 1_555 18_455
O4 C3 C2 149.432 18_455 1_555 1_555
O4 C3 C4 29.732 18_455 1_555 18_455
C2 C3 O4 60.006 18_455 1_555 18_455
C2 C3 C2 89.478 18_455 1_555 1_555
C2 C3 C4 30.274 18_455 1_555 18_455
C4 C3 C2 59.483 1_555 1_555 18_455
C4 C3 O4 119.478 1_555 1_555 18_455
C4 C3 C2 30.00(1) 1_555 1_555 1_555
C4 C3 C4 89.751 1_555 1_555 18_455
C1 C3 C4 61.98(1) 1_555 1_555 1_555
C1 C3 C2 121.460 1_555 1_555 18_455
C1 C3 O4 177.867 1_555 1_555 18_455
C1 C3 C2 31.98(1) 1_555 1_555 1_555
C1 C3 C4 151.708 1_555 1_555 18_455
C3 C3 C1 91.328 18_455 1_555 1_555
C3 C3 C4 29.354 18_455 1_555 1_555
C3 C3 C2 30.132 18_455 1_555 18_455
C3 C3 O4 90.125 18_455 1_555 18_455
C3 C3 C2 59.345 18_455 1_555 1_555
C3 C3 C4 60.397 18_455 1_555 18_455
O2 C3 C3 116.114 1_555 1_555 18_455
O2 C3 C1 26.805 1_555 1_555 1_555
O2 C3 C4 87.280 1_555 1_555 1_555
O2 C3 C2 145.469 1_555 1_555 18_455
O2 C3 O4 151.257 1_555 1_555 18_455
O2 C3 C2 57.658 1_555 1_555 1_555
O2 C3 C4 169.134 1_555 1_555 18_455
O2A C3 O2 30.082 1_555 1_555 1_555
O2A C3 C3 108.209 1_555 1_555 18_455
O2A C3 C1 26.512 1_555 1_555 1_555
O2A C3 C4 80.456 1_555 1_555 1_555
O2A C3 C2 135.707 1_555 1_555 18_455
O2A C3 O4 153.640 1_555 1_555 18_455
O2A C3 C2 52.832 1_555 1_555 1_555
O2A C3 C4 158.674 1_555 1_555 18_455
C5 C3 O2A 126.747 18_455 1_555 1_555
C5 C3 O2 129.522 18_455 1_555 1_555
C5 C3 C3 114.346 18_455 1_555 18_455
C5 C3 C1 151.802 18_455 1_555 1_555
C5 C3 C4 142.597 18_455 1_555 1_555
C5 C3 C2 84.785 18_455 1_555 18_455
C5 C3 O4 27.561 18_455 1_555 18_455
C5 C3 C2 167.672 18_455 1_555 1_555
C5 C3 C4 55.387 18_455 1_555 18_455
O4 C4 C3 120.888 1_555 1_555 18_455
C2 C4 O4 118.88(1) 1_555 1_555 1_555
C2 C4 C3 120.233 1_555 1_555 18_455
C2 C4 C2 89.722 18_455 1_555 1_555
C2 C4 O4 151.380 18_455 1_555 1_555
C2 C4 C3 30.529 18_455 1_555 18_455
C3 C4 C2 59.726 1_555 1_555 18_455
C3 C4 C2 30.00(1) 1_555 1_555 1_555
C3 C4 O4 148.85(1) 1_555 1_555 1_555
C3 C4 C3 90.249 1_555 1_555 18_455
C1 C4 C3 60.65(1) 1_555 1_555 1_555
C1 C4 C2 120.372 1_555 1_555 18_455
C1 C4 C2 30.65(1) 1_555 1_555 1_555
C1 C4 O4 88.23(1) 1_555 1_555 1_555
C1 C4 C3 150.876 1_555 1_555 18_455
C5 C4 C1 109.20(1) 1_555 1_555 1_555
C5 C4 C3 163.02(1) 1_555 1_555 1_555
C5 C4 C2 128.233 1_555 1_555 18_455
C5 C4 C2 138.28(1) 1_555 1_555 1_555
C5 C4 O4 26.49(1) 1_555 1_555 1_555
C5 C4 C3 98.708 1_555 1_555 18_455
C4 C4 C5 155.388 18_455 1_555 1_555
C4 C4 C1 90.118 18_455 1_555 1_555
C4 C4 C3 29.474 18_455 1_555 1_555
C4 C4 C2 30.255 18_455 1_555 18_455
C4 C4 C2 59.467 18_455 1_555 1_555
C4 C4 O4 178.107 18_455 1_555 1_555
C4 C4 C3 60.775 18_455 1_555 18_455
O3 C4 C4 110.151 1_555 1_555 18_455
O3 C4 C5 93.194 1_555 1_555 1_555
O3 C4 C1 26.742 1_555 1_555 1_555
O3 C4 C3 81.857 1_555 1_555 1_555
O3 C4 C2 138.331 1_555 1_555 18_455
O3 C4 C2 53.610 1_555 1_555 1_555
O3 C4 O4 67.993 1_555 1_555 1_555
O3 C4 C3 162.062 1_555 1_555 18_455
O3A C4 O3 37.535 1_555 1_555 1_555
O3A C4 C4 103.666 1_555 1_555 18_455
O3A C4 C5 89.954 1_555 1_555 1_555
O3A C4 C1 24.517 1_555 1_555 1_555
O3A C4 C3 76.194 1_555 1_555 1_555
O3A C4 C2 131.489 1_555 1_555 18_455
O3A C4 C2 48.425 1_555 1_555 1_555
O3A C4 O4 75.121 1_555 1_555 1_555
O3A C4 C3 154.618 1_555 1_555 18_455
O2A O2 C1 56.502 1_555 1_555 1_555
O3A O2 O2A 95.858 1_555 1_555 1_555
O3A O2 C1 48.197 1_555 1_555 1_555
Zn2 O2 O3A 95.777 5_555 1_555 1_555
Zn2 O2 O2A 106.981 5_555 1_555 1_555
Zn2 O2 C1 130.090 5_555 1_555 1_555
O3 O2 Zn2 106.876 1_555 1_555 5_555
O3 O2 O3A 54.398 1_555 1_555 1_555
O3 O2 O2A 41.475 1_555 1_555 1_555
O3 O2 C1 27.373 1_555 1_555 1_555
C2 O2 O3 59.682 1_555 1_555 1_555
C2 O2 Zn2 161.750 1_555 1_555 5_555
C2 O2 O3A 66.582 1_555 1_555 1_555
C2 O2 O2A 71.891 1_555 1_555 1_555
C2 O2 C1 33.750 1_555 1_555 1_555
Zn2 O2 C2 121.830 1_555 1_555 1_555
Zn2 O2 O3 70.247 1_555 1_555 1_555
Zn2 O2 Zn2 56.878 1_555 1_555 5_555
Zn2 O2 O3A 106.712 1_555 1_555 1_555
Zn2 O2 O2A 50.722 1_555 1_555 1_555
Zn2 O2 C1 96.690 1_555 1_555 1_555
Zn1 O2 Zn2 72.253 1_555 1_555 1_555
Zn1 O2 C2 105.628 1_555 1_555 1_555
Zn1 O2 O3 62.480 1_555 1_555 1_555
Zn1 O2 Zn2 56.131 1_555 1_555 5_555
Zn1 O2 O3A 42.517 1_555 1_555 1_555
Zn1 O2 O2A 92.767 1_555 1_555 1_555
Zn1 O2 C1 76.585 1_555 1_555 1_555
C3 O2 Zn1 134.518 1_555 1_555 1_555
C3 O2 Zn2 127.763 1_555 1_555 1_555
C3 O2 C2 29.475 1_555 1_555 1_555
C3 O2 O3 85.000 1_555 1_555 1_555
C3 O2 Zn2 167.876 1_555 1_555 5_555
C3 O2 O3A 93.178 1_555 1_555 1_555
C3 O2 O2A 80.134 1_555 1_555 1_555
C3 O2 C1 61.997 1_555 1_555 1_555
O2A O2 C3 133.599 5_555 1_555 1_555
O2A O2 Zn1 91.830 5_555 1_555 1_555
O2A O2 Zn2 54.398 5_555 1_555 1_555
O2A O2 C2 160.222 5_555 1_555 1_555
O2A O2 O3 124.138 5_555 1_555 1_555
O2A O2 Zn2 36.922 5_555 1_555 5_555
O2A O2 O3A 132.696 5_555 1_555 1_555
O2A O2 O2A 98.531 5_555 1_555 1_555
O2A O2 C1 151.081 5_555 1_555 1_555
O3 O2 O2A 66.203 3_555 1_555 5_555
O3 O2 C3 138.390 3_555 1_555 1_555
O3 O2 Zn1 52.645 3_555 1_555 1_555
O3 O2 Zn2 93.812 3_555 1_555 1_555
O3 O2 C2 132.166 3_555 1_555 1_555
O3 O2 O3 114.889 3_555 1_555 1_555
O3 O2 Zn2 38.629 3_555 1_555 5_555
O3 O2 O3A 73.598 3_555 1_555 1_555
O3 O2 O2A 139.225 3_555 1_555 1_555
O3 O2 C1 121.441 3_555 1_555 1_555
O1 O2 O3 61.694 1_555 1_555 3_555
O1 O2 O2A 61.647 1_555 1_555 5_555
O1 O2 C3 155.110 1_555 1_555 1_555
O1 O2 Zn1 36.895 1_555 1_555 1_555
O1 O2 Zn2 38.061 1_555 1_555 1_555
O1 O2 C2 129.720 1_555 1_555 1_555
O1 O2 O3 70.907 1_555 1_555 1_555
O1 O2 Zn2 36.167 1_555 1_555 5_555
O1 O2 O3A 78.093 1_555 1_555 1_555
O1 O2 O2A 77.679 1_555 1_555 1_555
O1 O2 C1 95.971 1_555 1_555 1_555
O2 O2A C1 52.829 1_555 1_555 1_555
O3 O2A O2 97.507 1_555 1_555 1_555
O3 O2A C1 53.143 1_555 1_555 1_555
Zn2 O2A O3 105.001 1_555 1_555 1_555
Zn2 O2A O2 92.073 1_555 1_555 1_555
Zn2 O2A C1 126.628 1_555 1_555 1_555
O3A O2A Zn2 103.230 1_555 1_555 1_555
O3A O2A O3 52.935 1_555 1_555 1_555
O3A O2A O2 44.587 1_555 1_555 1_555
O3A O2A C1 23.399 1_555 1_555 1_555
C2 O2A O3A 58.026 1_555 1_555 1_555
C2 O2A Zn2 160.670 1_555 1_555 1_555
C2 O2A O3 68.652 1_555 1_555 1_555
C2 O2A O2 71.361 1_555 1_555 1_555
C2 O2A C1 34.739 1_555 1_555 1_555
Zn2 O2A C2 118.493 4_555 1_555 1_555
Zn2 O2A O3A 76.539 4_555 1_555 1_555
Zn2 O2A Zn2 54.933 4_555 1_555 1_555
Zn2 O2A O3 50.655 4_555 1_555 1_555
Zn2 O2A O2 104.614 4_555 1_555 1_555
Zn2 O2A C1 92.574 4_555 1_555 1_555
Zn2 O2A Zn2 74.012 5_555 1_555 4_555
Zn2 O2A C2 111.780 5_555 1_555 1_555
Zn2 O2A O3A 62.684 5_555 1_555 1_555
Zn2 O2A Zn2 50.072 5_555 1_555 1_555
Zn2 O2A O3 99.898 5_555 1_555 1_555
Zn2 O2A O2 42.619 5_555 1_555 1_555
Zn2 O2A C1 83.224 5_555 1_555 1_555
C3 O2A Zn2 111.794 1_555 1_555 5_555
C3 O2A Zn2 146.043 1_555 1_555 4_555
C3 O2A C2 27.560 1_555 1_555 1_555
C3 O2A O3A 77.256 1_555 1_555 1_555
C3 O2A Zn2 154.018 1_555 1_555 1_555
C3 O2A O3 95.965 1_555 1_555 1_555
C3 O2A O2 69.784 1_555 1_555 1_555
C3 O2A C1 56.630 1_555 1_555 1_555
O2 O2A C3 155.817 4_555 1_555 1_555
O2 O2A Zn2 88.276 4_555 1_555 5_555
O2 O2A Zn2 50.596 4_555 1_555 4_555
O2 O2A C2 154.690 4_555 1_555 1_555
O2 O2A O3A 125.604 4_555 1_555 1_555
O2 O2A Zn2 38.897 4_555 1_555 1_555
O2 O2A O3 93.543 4_555 1_555 1_555
O2 O2A O2 130.790 4_555 1_555 1_555
O2 O2A C1 143.038 4_555 1_555 1_555
O2A O3 C1 55.882 1_555 1_555 1_555
O3A O3 O2A 86.895 1_555 1_555 1_555
O3A O3 C1 41.359 1_555 1_555 1_555
Zn2 O3 O3A 104.171 4_555 1_555 1_555
Zn2 O3 O2A 93.975 4_555 1_555 1_555
Zn2 O3 C1 127.329 4_555 1_555 1_555
O2 O3 Zn2 101.363 1_555 1_555 4_555
O2 O3 O3A 45.890 1_555 1_555 1_555
O2 O3 O2A 41.018 1_555 1_555 1_555
O2 O3 C1 27.038 1_555 1_555 1_555
C2 O3 O2 62.516 1_555 1_555 1_555
C2 O3 Zn2 163.876 1_555 1_555 4_555
C2 O3 O3A 65.468 1_555 1_555 1_555
C2 O3 O2A 73.765 1_555 1_555 1_555
C2 O3 C1 36.831 1_555 1_555 1_555
Zn1 O3 C2 111.733 1_555 1_555 1_555
Zn1 O3 O2 68.277 1_555 1_555 1_555
Zn1 O3 Zn2 58.582 1_555 1_555 4_555
Zn1 O3 O3A 46.322 1_555 1_555 1_555
Zn1 O3 O2A 97.483 1_555 1_555 1_555
Zn1 O3 C1 81.664 1_555 1_555 1_555
O4 O3 Zn1 105.469 1_555 1_555 1_555
O4 O3 C2 56.410 1_555 1_555 1_555
O4 O3 O2 109.824 1_555 1_555 1_555
O4 O3 Zn2 136.071 1_555 1_555 4_555
O4 O3 O3A 78.455 1_555 1_555 1_555
O4 O3 O2A 129.814 1_555 1_555 1_555
O4 O3 C1 83.819 1_555 1_555 1_555
Zn2 O3 O4 168.321 1_555 1_555 1_555
Zn2 O3 Zn1 70.468 1_555 1_555 1_555
Zn2 O3 C2 114.151 1_555 1_555 1_555
Zn2 O3 O2 58.529 1_555 1_555 1_555
Zn2 O3 Zn2 51.838 1_555 1_555 4_555
Zn2 O3 O3A 91.387 1_555 1_555 1_555
Zn2 O3 O2A 42.690 1_555 1_555 1_555
Zn2 O3 C1 84.738 1_555 1_555 1_555
C4 O3 Zn2 142.898 1_555 1_555 1_555
C4 O3 O4 28.473 1_555 1_555 1_555
C4 O3 Zn1 116.304 1_555 1_555 1_555
C4 O3 C2 28.802 1_555 1_555 1_555
C4 O3 O2 88.903 1_555 1_555 1_555
C4 O3 Zn2 164.477 1_555 1_555 4_555
C4 O3 O3A 74.630 1_555 1_555 1_555
C4 O3 O2A 101.370 1_555 1_555 1_555
C4 O3 C1 61.907 1_555 1_555 1_555
O3A O3 C4 106.875 2_555 1_555 1_555
O3A O3 Zn2 98.680 2_555 1_555 1_555
O3A O3 O4 82.889 2_555 1_555 1_555
O3A O3 Zn1 37.732 2_555 1_555 1_555
O3A O3 C2 122.162 2_555 1_555 1_555
O3A O3 O2 104.170 2_555 1_555 1_555
O3A O3 Zn2 59.529 2_555 1_555 4_555
O3A O3 O3A 67.623 2_555 1_555 1_555
O3A O3 O2A 134.415 2_555 1_555 1_555
O3A O3 C1 108.980 2_555 1_555 1_555
O2 O3 O3A 30.542 2_555 1_555 2_555
O2 O3 C4 126.191 2_555 1_555 1_555
O2 O3 Zn2 88.918 2_555 1_555 1_555
O2 O3 O4 97.889 2_555 1_555 1_555
O2 O3 Zn1 56.373 2_555 1_555 1_555
O2 O3 C2 150.030 2_555 1_555 1_555
O2 O3 O2 122.874 2_555 1_555 1_555
O2 O3 Zn2 38.288 2_555 1_555 4_555
O2 O3 O3A 96.637 2_555 1_555 1_555
O2 O3 O2A 131.606 2_555 1_555 1_555
O2 O3 C1 137.063 2_555 1_555 1_555
O2 O3A C1 49.403 1_555 1_555 1_555
O3 O3A O2 79.713 1_555 1_555 1_555
O3 O3A C1 42.903 1_555 1_555 1_555
Zn1 O3A O3 88.795 1_555 1_555 1_555
Zn1 O3A O2 101.871 1_555 1_555 1_555
Zn1 O3A C1 121.088 1_555 1_555 1_555
C2 O3A Zn1 155.158 1_555 1_555 1_555
C2 O3A O3 66.538 1_555 1_555 1_555
C2 O3A O2 71.973 1_555 1_555 1_555
C2 O3A C1 36.928 1_555 1_555 1_555
O2A O3A C2 61.855 1_555 1_555 1_555
O2A O3A Zn1 97.679 1_555 1_555 1_555
O2A O3A O3 40.169 1_555 1_555 1_555
O2A O3A O2 39.554 1_555 1_555 1_555
O2A O3A C1 25.045 1_555 1_555 1_555
Zn2 O3A O2A 67.522 5_555 1_555 1_555
Zn2 O3A C2 118.912 5_555 1_555 1_555
Zn2 O3A Zn1 57.773 5_555 1_555 1_555
Zn2 O3A O3 94.870 5_555 1_555 1_555
Zn2 O3A O2 47.102 5_555 1_555 1_555
Zn2 O3A C1 89.411 5_555 1_555 1_555
O4 O3A Zn2 157.494 1_555 1_555 5_555
O4 O3A O2A 91.810 1_555 1_555 1_555
O4 O3A C2 52.230 1_555 1_555 1_555
O4 O3A Zn1 119.884 1_555 1_555 1_555
O4 O3A O3 62.737 1_555 1_555 1_555
O4 O3A O2 120.867 1_555 1_555 1_555
O4 O3A C1 72.796 1_555 1_555 1_555
C4 O3A O4 26.801 1_555 1_555 1_555
C4 O3A Zn2 145.050 1_555 1_555 5_555
C4 O3A O2A 80.964 1_555 1_555 1_555
C4 O3A C2 26.837 1_555 1_555 1_555
C4 O3A Zn1 145.433 1_555 1_555 1_555
C4 O3A O3 67.836 1_555 1_555 1_555
C4 O3A O2 98.641 1_555 1_555 1_555
C4 O3A C1 56.945 1_555 1_555 1_555
O3A O3A C4 149.274 3_555 1_555 1_555
O3A O3A O4 129.380 3_555 1_555 1_555
O3A O3A Zn2 65.212 3_555 1_555 5_555
O3A O3A O2A 128.873 3_555 1_555 1_555
O3A O3A C2 165.447 3_555 1_555 1_555
O3A O3A Zn1 39.388 3_555 1_555 1_555
O3A O3A O3 127.949 3_555 1_555 1_555
O3A O3A O2 109.620 3_555 1_555 1_555
O3A O3A C1 153.584 3_555 1_555 1_555
O3A O3A O3A 60.000 2_555 1_555 3_555
O3A O3A C4 107.960 2_555 1_555 1_555
O3A O3A O4 81.310 2_555 1_555 1_555
O3A O3A Zn2 96.340 2_555 1_555 5_555
O3A O3A O2A 108.271 2_555 1_555 1_555
O3A O3A C2 129.844 2_555 1_555 1_555
O3A O3A Zn1 39.388 2_555 1_555 1_555
O3A O3A O3 76.665 2_555 1_555 1_555
O3A O3A O2 133.942 2_555 1_555 1_555
O3A O3A C1 119.564 2_555 1_555 1_555
Zn2 O3A O3A 53.617 4_555 1_555 2_555
Zn2 O3A O3A 89.268 4_555 1_555 3_555
Zn2 O3A C4 106.095 4_555 1_555 1_555
Zn2 O3A O4 92.740 4_555 1_555 1_555
Zn2 O3A Zn2 68.610 4_555 1_555 5_555
Zn2 O3A O2A 55.618 4_555 1_555 1_555
Zn2 O3A C2 105.258 4_555 1_555 1_555
Zn2 O3A Zn1 49.909 4_555 1_555 1_555
Zn2 O3A O3 39.630 4_555 1_555 1_555
Zn2 O3A O2 83.481 4_555 1_555 1_555
Zn2 O3A C1 73.876 4_555 1_555 1_555
O3 O3A Zn2 96.790 3_555 1_555 4_555
O3 O3A O3A 91.840 3_555 1_555 2_555
O3 O3A O3A 35.712 3_555 1_555 3_555
O3 O3A C4 155.786 3_555 1_555 1_555
O3 O3A O4 161.726 3_555 1_555 1_555
O3 O3A Zn2 39.746 3_555 1_555 5_555
O3 O3A O2A 106.441 3_555 1_555 1_555
O3 O3A C2 138.169 3_555 1_555 1_555
O3 O3A Zn1 57.777 3_555 1_555 1_555
O3 O3A O3 132.242 3_555 1_555 1_555
O3 O3A O2 75.859 3_555 1_555 1_555
O3 O3A C1 124.882 3_555 1_555 1_555
C5 O4 C4 128.79(1) 1_555 1_555 1_555
C3 O4 C5 103.770 18_455 1_555 1_555
C3 O4 C4 29.380 18_455 1_555 1_555
C2 O4 C3 60.159 1_555 1_555 18_455
C2 O4 C5 149.21(1) 1_555 1_555 1_555
C2 O4 C4 30.78(1) 1_555 1_555 1_555
C6 O4 C2 156.68(1) 1_555 1_555 1_555
C6 O4 C3 139.251 1_555 1_555 18_455
C6 O4 C5 36.70(1) 1_555 1_555 1_555
C6 O4 C4 165.10(1) 1_555 1_555 1_555
O3 O4 C6 109.207 1_555 1_555 1_555
O3 O4 C2 54.431 1_555 1_555 1_555
O3 O4 C3 111.526 1_555 1_555 18_455
O3 O4 C5 143.429 1_555 1_555 1_555
O3 O4 C4 83.534 1_555 1_555 1_555
C1 O4 O3 26.833 1_555 1_555 1_555
C1 O4 C6 126.36(1) 1_555 1_555 1_555
C1 O4 C2 32.06(1) 1_555 1_555 1_555
C1 O4 C3 92.216 1_555 1_555 18_455
C1 O4 C5 147.19(1) 1_555 1_555 1_555
C1 O4 C4 62.84(1) 1_555 1_555 1_555
O3A O4 C1 24.897 1_555 1_555 1_555
O3A O4 O3 38.808 1_555 1_555 1_555
O3A O4 C6 106.732 1_555 1_555 1_555
O3A O4 C2 49.950 1_555 1_555 1_555
O3A O4 C3 105.462 1_555 1_555 18_455
O3A O4 C5 122.319 1_555 1_555 1_555
O3A O4 C4 78.079 1_555 1_555 1_555
C6 C5 O4 108.27(1) 1_555 1_555 1_555
C7 C5 C6 35.63(1) 1_555 1_555 1_555
C7 C5 O4 135.38(1) 1_555 1_555 1_555
C4 C5 C7 156.50(1) 1_555 1_555 1_555
C4 C5 C6 132.88(1) 1_555 1_555 1_555
C4 C5 O4 24.73(1) 1_555 1_555 1_555
C3 C5 C4 25.906 18_455 1_555 1_555
C3 C5 C7 150.680 18_455 1_555 1_555
C3 C5 C6 154.581 18_455 1_555 1_555
C3 C5 O4 48.669 18_455 1_555 1_555
C5 C6 C7 108.73(1) 1_555 1_555 1_555
O4 C6 C5 35.03(1) 1_555 1_555 1_555
O4 C6 C7 135.39(1) 1_555 1_555 1_555
C8 C6 O4 118.28(1) 1_555 1_555 1_555
C8 C6 C5 112.56(1) 1_555 1_555 1_555
C8 C6 C7 35.81(1) 1_555 1_555 1_555
C6 C7 C8 108.37(1) 1_555 1_555 1_555
C5 C7 C6 35.64(1) 1_555 1_555 1_555
C5 C7 C8 112.28(1) 1_555 1_555 1_555
C9 C7 C5 147.20(1) 1_555 1_555 1_555
C9 C7 C6 137.26(1) 1_555 1_555 1_555
C9 C7 C8 35.48(1) 1_555 1_555 1_555
C9 C8 C7 109.04(1) 1_555 1_555 1_555
C6 C8 C9 138.10(1) 1_555 1_555 1_555
C6 C8 C7 35.81(1) 1_555 1_555 1_555
C10 C8 C6 170.36(1) 1_555 1_555 1_555
C10 C8 C9 36.11(1) 1_555 1_555 1_555
C10 C8 C7 134.56(1) 1_555 1_555 1_555
C10 C9 C8 108.85(1) 1_555 1_555 1_555
C7 C9 C10 134.04(1) 1_555 1_555 1_555
C7 C9 C8 35.48(1) 1_555 1_555 1_555
C11 C9 C7 163.50(1) 1_555 1_555 1_555
C11 C9 C10 35.19(1) 1_555 1_555 1_555
C11 C9 C8 143.17(1) 1_555 1_555 1_555
C11 C10 C9 109.62(1) 1_555 1_555 1_555
C8 C10 C11 143.77(1) 1_555 1_555 1_555
C8 C10 C9 35.04(1) 1_555 1_555 1_555
C9 C11 C10 35.19(1) 1_555 1_555 1_555


#==============================================================================
# PD Data Block - Obs + Calc
#==============================================================================
_pd_proc_2theta_range_min        0.6 #Lowest value in column 2 below
_pd_proc_2theta_range_max        12.28 #Lowest value in column 2 below
_pd_proc_2theta_range_inc        
0.05 #Step size between any two points in column 2 below
_pd_meas_number_of_points        
2337 #This is the last number in column 1 below

loop_
_pd_proc_point_id
_pd_meas_2theta_scan
_pd_proc_intensity_total
_pd_calc_intensity_total
_pd_proc_ls_weight
1 0.60000 2077.85790 2061.14480 0.00049
2 0.60500 2094.12964 2086.19970 0.00048
3 0.61000 2110.90486 2100.00030 0.00048
4 0.61500 2128.06936 2118.02900 0.00047
5 0.62000 2145.51999 2154.81780 0.00046
6 0.62500 2163.16398 2187.31780 0.00046
7 0.63000 2180.91819 2198.22570 0.00045
8 0.63500 2198.70845 2199.53570 0.00045
9 0.64000 2216.46896 2213.05310 0.00045
10 0.64500 2234.14167 2237.68660 0.00045
11 0.65000 2251.67575 2249.15020 0.00044
12 0.65500 2269.02705 2263.80290 0.00044
13 0.66000 2286.15762 2290.10130 0.00044
14 0.66500 2303.03524 2311.80550 0.00043
15 0.67000 2319.63303 2326.15290 0.00043
16 0.67500 2335.92899 2345.32180 0.00043
17 0.68000 2351.90569 2370.20160 0.00042
18 0.68500 2367.54988 2381.20010 0.00042
19 0.69000 2382.85222 2391.96990 0.00042
20 0.69500 2397.99027 2397.50240 0.00042
21 0.70000 2412.59653 2405.73840 0.00042
22 0.70500 2426.85346 2424.05350 0.00041
23 0.71000 2440.76463 2441.66860 0.00041
24 0.71500 2454.33632 2455.30850 0.00041
25 0.72000 2467.57733 2471.30930 0.00040
26 0.72500 2480.49893 2486.94190 0.00040
27 0.73000 2493.11470 2489.00000 0.00040
28 0.73500 2505.44046 2501.12530 0.00040
29 0.74000 2517.49431 2515.73630 0.00040
30 0.74500 2529.29656 2520.29490 0.00040
31 0.75000 2540.86984 2520.36430 0.00040
32 0.75500 2552.23920 2528.82180 0.00040
33 0.76000 2563.43226 2541.65550 0.00039
34 0.76500 2574.47945 2560.75340 0.00039
35 0.77000 2585.41434 2580.34330 0.00039
36 0.77500 2596.27403 2593.13270 0.00039
37 0.78000 2607.09976 2602.16690 0.00038
38 0.78500 2617.93753 2621.45170 0.00038
39 0.79000 2628.83905 2620.98470 0.00038
40 0.79500 2639.86284 2627.77860 0.00038
41 0.80000 2651.07570 2652.08770 0.00038
42 0.80500 2662.55458 2667.14880 0.00037
43 0.81000 2674.38893 2669.03350 0.00037
44 0.81500 2686.68380 2677.68000 0.00037
45 0.82000 2699.56389 2692.00410 0.00037
46 0.82500 2713.28822 2719.35720 0.00037
47 0.83000 2727.82047 2723.29510 0.00037
48 0.83500 2743.49208 2735.17310 0.00037
49 0.84000 2760.58020 2750.98390 0.00036
50 0.84500 2779.43374 2784.95030 0.00036
51 0.85000 2800.49802 2815.92880 0.00036
52 0.85500 2824.34962 2817.95440 0.00035
53 0.86000 2851.74669 2850.93530 0.00035
54 0.86500 2883.70294 2875.90320 0.00035
55 0.87000 2921.59879 2910.74420 0.00034
56 0.87500 2967.35282 2955.17370 0.00034
57 0.88000 3023.69812 3011.81660 0.00033
58 0.88500 3094.70229 3076.93980 0.00032
59 0.89000 3187.22086 3182.20110 0.00031
60 0.89500 3316.94350 3345.31280 0.00030
61 0.90000 3534.17670 3609.77230 0.00028
62 0.90500 4010.78268 4128.05620 0.00024
63 0.91000 5239.04408 5275.11440 0.00019
64 0.91500 8255.50272 8005.06470 0.00012
65 0.92000 14434.56114 14132.67600 0.00007
66 0.92500 24283.71741 24764.59000 0.00004
67 0.93000 35671.67873 36765.11300 0.00003
68 0.93500 43297.23183 43388.16000 0.00002
69 0.94000 41887.50510 40802.07300 0.00002
70 0.94500 32540.74031 32323.81600 0.00003
71 0.95000 21182.69120 21367.43800 0.00005
72 0.95500 12316.36194 12240.71000 0.00008
73 0.96000 7171.10896 7129.27960 0.00014
74 0.96500 4811.10872 4911.99820 0.00020
75 0.97000 3885.02136 4005.33140 0.00025
76 0.97500 3522.13178 3591.29230 0.00028
77 0.98000 3347.98978 3370.92600 0.00030
78 0.98500 3240.24652 3248.23820 0.00031
79 0.99000 3163.54279 3166.00480 0.00032
80 0.99500 3105.98017 3121.10870 0.00032
81 1.00000 3061.78602 3085.11950 0.00032
82 1.00500 3027.36081 3039.12170 0.00033
83 1.01000 3000.24798 3016.14370 0.00033
84 1.01500 2978.71175 2994.93870 0.00033
85 1.02000 2961.49787 2979.44690 0.00034
86 1.02500 2947.68260 2966.85380 0.00034
87 1.03000 2936.57402 2939.37080 0.00034
88 1.03500 2927.64583 2928.65470 0.00034
89 1.04000 2920.49219 2924.96810 0.00034
90 1.04500 2914.79617 2919.71860 0.00034
91 1.05000 2910.30743 2914.20180 0.00034
92 1.05500 2906.82619 2890.68610 0.00035
93 1.06000 2904.19151 2884.99600 0.00035
94 1.06500 2902.27257 2889.83900 0.00035
95 1.07000 2900.96228 2900.21390 0.00034
96 1.07500 2900.17230 2906.03080 0.00034
97 1.08000 2899.82935 2894.81410 0.00035
98 1.08500 2899.87232 2887.23500 0.00035
99 1.09000 2900.25003 2884.57470 0.00035
100 1.09500 2900.93793 2887.10400 0.00035
101 1.10000 2901.86315 2886.17380 0.00035
102 1.10500 2903.01360 2884.90070 0.00035
103 1.11000 2904.36379 2885.01570 0.00035
104 1.11500 2905.89255 2890.04340 0.00035
105 1.12000 2907.58248 2889.99750 0.00035
106 1.12500 2909.41960 2898.24970 0.00035
107 1.13000 2911.39313 2899.63580 0.00034
108 1.13500 2913.49535 2897.89830 0.00035
109 1.14000 2915.72155 2902.98670 0.00034
110 1.14500 2918.07019 2898.06630 0.00035
111 1.15000 2920.56426 2894.27770 0.00035
112 1.15500 2923.16719 2894.20890 0.00035
113 1.16000 2925.90997 2903.09930 0.00034
114 1.16500 2928.80785 2908.45120 0.00034
115 1.17000 2931.88261 2919.85670 0.00034
116 1.17500 2935.16436 2933.11090 0.00034
117 1.18000 2938.69408 2937.35200 0.00034
118 1.18500 2942.52727 2935.16330 0.00034
119 1.19000 2946.73933 2931.49030 0.00034
120 1.19500 2951.43340 2935.94670 0.00034
121 1.20000 2956.75238 2946.01670 0.00034
122 1.20500 2962.89745 2942.48510 0.00034
123 1.21000 2970.15920 2953.53990 0.00034
124 1.21500 2978.98230 2956.44800 0.00034
125 1.22000 2990.16675 2959.67050 0.00034
126 1.22500 3005.66051 2983.02460 0.00034
127 1.23000 3031.43067 3012.65800 0.00033
128 1.23500 3085.35283 3071.69540 0.00033
129 1.24000 3211.06914 3196.98130 0.00031
130 1.24500 3485.53708 3458.00310 0.00029
131 1.25000 3988.28779 3963.59420 0.00025
132 1.25500 4712.91299 4679.52140 0.00021
133 1.26000 5467.90776 5355.12060 0.00019
134 1.26500 5870.31686 5630.92240 0.00018
135 1.27000 5626.25062 5409.19390 0.00018
136 1.27500 4924.46234 4843.85690 0.00021
137 1.28000 4168.41321 4185.21070 0.00024
138 1.28500 3605.41646 3661.13400 0.00027
139 1.29000 3281.85329 3365.21720 0.00030
140 1.29500 3130.05394 3217.66170 0.00031
141 1.30000 3067.12600 3147.52840 0.00032
142 1.30500 3040.71994 3124.46050 0.00032
143 1.31000 3027.85852 3107.88670 0.00032
144 1.31500 3020.52249 3093.07440 0.00032
145 1.32000 3016.28580 3078.76720 0.00032
146 1.32500 3014.31950 3063.40690 0.00033
147 1.33000 3014.33715 3072.69760 0.00033
148 1.33500 3016.39816 3086.70920 0.00032
149 1.34000 3021.15574 3095.54650 0.00032
150 1.34500 3031.01146 3097.79790 0.00032
151 1.35000 3053.41897 3129.43190 0.00032
152 1.35500 3106.99379 3186.76070 0.00031
153 1.36000 3225.83855 3302.72470 0.00030
154 1.36500 3448.56008 3506.25110 0.00029
155 1.37000 3781.15924 3813.02510 0.00026
156 1.37500 4149.74486 4140.74910 0.00024
157 1.38000 4383.91488 4323.00710 0.00023
158 1.38500 4318.34931 4260.42470 0.00023
159 1.39000 4004.59942 4010.23670 0.00025
160 1.39500 3635.17817 3678.30620 0.00027
161 1.40000 3343.63894 3384.03740 0.00030
162 1.40500 3166.55981 3189.05750 0.00031
163 1.41000 3078.78123 3091.83310 0.00032
164 1.41500 3040.52377 3045.12120 0.00033
165 1.42000 3023.85370 3018.85610 0.00033
166 1.42500 3015.45329 3008.85780 0.00033
167 1.43000 3010.43954 3007.86920 0.00033
168 1.43500 3007.33315 2998.23750 0.00033
169 1.44000 3005.98456 2999.95620 0.00033
170 1.44500 3007.31524 3004.38620 0.00033
171 1.45000 3013.71924 3005.15080 0.00033
172 1.45500 3028.85052 3005.11700 0.00033
173 1.46000 3055.31063 3009.25750 0.00033
174 1.46500 3090.27858 3018.39390 0.00033
175 1.47000 3121.78853 3028.43680 0.00033
176 1.47500 3130.93982 3028.90410 0.00033
177 1.48000 3110.11703 3018.72210 0.00033
178 1.48500 3074.05942 3014.72100 0.00033
179 1.49000 3040.10233 2994.88340 0.00033
180 1.49500 3016.45889 2981.24370 0.00034
181 1.50000 3003.27510 2996.72070 0.00033
182 1.50500 2997.00808 2998.10880 0.00033
183 1.51000 2994.33635 2986.14310 0.00033
184 1.51500 2992.96115 2981.66230 0.00034
185 1.52000 2992.15821 2979.17240 0.00034
186 1.52500 2991.62320 2979.99060 0.00034
187 1.53000 2991.25089 2975.04310 0.00034
188 1.53500 2990.99684 2980.41590 0.00034
189 1.54000 2990.83682 2986.88410 0.00033
190 1.54500 2990.75602 2989.12010 0.00033
191 1.55000 2990.74545 2987.59540 0.00033
192 1.55500 2990.80042 2987.79630 0.00033
193 1.56000 2990.91963 2994.93520 0.00033
194 1.56500 2991.10482 2982.94230 0.00034
195 1.57000 2991.36067 2977.87630 0.00034
196 1.57500 2991.69501 2975.25740 0.00034
197 1.58000 2992.11939 2984.71670 0.00034
198 1.58500 2992.72259 2991.34220 0.00033
199 1.59000 2993.38183 2997.18630 0.00033
200 1.59500 2994.19931 2994.28020 0.00033
201 1.60000 2995.21623 2995.74700 0.00033
202 1.60500 2996.48978 3006.36480 0.00033
203 1.61000 2998.10075 3008.00840 0.00033
204 1.61500 3000.16742 3011.67460 0.00033
205 1.62000 3002.89931 3023.83190 0.00033
206 1.62500 3006.62530 3033.00050 0.00033
207 1.63000 3012.35759 3037.10450 0.00033
208 1.63500 3022.63725 3050.28090 0.00033
209 1.64000 3044.32786 3080.69750 0.00032
210 1.64500 3091.19530 3136.69890 0.00032
211 1.65000 3182.81011 3225.17550 0.00031
212 1.65500 3332.66797 3384.08030 0.00030
213 1.66000 3526.44648 3589.11260 0.00028
214 1.66500 3702.26085 3771.97800 0.00027
215 1.67000 3758.99466 3838.18460 0.00026
216 1.67500 3652.65270 3757.79860 0.00027
217 1.68000 3461.09401 3575.57200 0.00028
218 1.68500 3277.82027 3369.73840 0.00030
219 1.69000 3147.67187 3209.93060 0.00031
220 1.69500 3073.23959 3110.57330 0.00032
221 1.70000 3036.96910 3052.24800 0.00033
222 1.70500 3020.52639 3024.28450 0.00033
223 1.71000 3012.62877 3011.50400 0.00033
224 1.71500 3008.19540 3007.68660 0.00033
225 1.72000 3005.34698 3009.80390 0.00033
226 1.72500 3003.44098 3006.28610 0.00033
227 1.73000 3002.15188 2998.72790 0.00033
228 1.73500 3001.35547 3002.72810 0.00033
229 1.74000 3000.96155 2996.78610 0.00033
230 1.74500 3000.91411 3002.10330 0.00033
231 1.75000 3001.18082 2997.21820 0.00033
232 1.75500 3001.74723 2997.69120 0.00033
233 1.76000 3002.61360 2999.08730 0.00033
234 1.76500 3003.79347 2993.59320 0.00033
235 1.77000 3005.31357 2993.92560 0.00033
236 1.77500 3007.21497 2996.20410 0.00033
237 1.78000 3009.55547 3000.25640 0.00033
238 1.78500 3012.41362 3001.58390 0.00033
239 1.79000 3015.89469 2998.97450 0.00033
240 1.79500 3020.13967 3003.49270 0.00033
241 1.80000 3025.33848 3008.02230 0.00033
242 1.80500 3031.75305 3015.66780 0.00033
243 1.81000 3039.73515 3024.39370 0.00033
244 1.81500 3049.79420 3024.57950 0.00033
245 1.82000 3062.67633 3035.66100 0.00033
246 1.82500 3079.59808 3049.85710 0.00033
247 1.83000 3103.00158 3064.27910 0.00033
248 1.83500 3139.04703 3099.01810 0.00032
249 1.84000 3204.35871 3154.61900 0.00032
250 1.84500 3338.86101 3260.04850 0.00031
251 1.85000 3617.84098 3479.35390 0.00029
252 1.85500 4138.95536 3928.14200 0.00025
253 1.86000 4956.56248 4725.75200 0.00021
254 1.86500 5974.17479 5800.81210 0.00017
255 1.87000 6847.87080 6703.43820 0.00015
256 1.87500 7050.47693 6854.96600 0.00015
257 1.88000 6421.31882 6316.15940 0.00016
258 1.88500 5410.46641 5359.82520 0.00019
259 1.89000 4477.56768 4382.62160 0.00023
260 1.89500 3822.83455 3702.32110 0.00027
261 1.90000 3446.40837 3358.15780 0.00030
262 1.90500 3258.75387 3211.52870 0.00031
263 1.91000 3170.06016 3145.47180 0.00032
264 1.91500 3125.10323 3111.83210 0.00032
265 1.92000 3098.57246 3096.17370 0.00032
266 1.92500 3080.80013 3077.33010 0.00032
267 1.93000 3068.19806 3064.56360 0.00033
268 1.93500 3059.21211 3054.46200 0.00033
269 1.94000 3053.00978 3062.67590 0.00033
270 1.94500 3049.09954 3065.63820 0.00033
271 1.95000 3047.20804 3061.25880 0.00033
272 1.95500 3047.23292 3055.41830 0.00033
273 1.96000 3049.23075 3054.89130 0.00033
274 1.96500 3053.43777 3061.41100 0.00033
275 1.97000 3060.35617 3065.93600 0.00033
276 1.97500 3071.05400 3065.80070 0.00033
277 1.98000 3088.17354 3078.97970 0.00032
278 1.98500 3118.78603 3111.57150 0.00032
279 1.99000 3179.28785 3166.88300 0.00032
280 1.99500 3306.77018 3279.85340 0.00030
281 2.00000 3551.13258 3525.48310 0.00028
282 2.00500 3953.71490 3966.31940 0.00025
283 2.01000 4494.49779 4597.37960 0.00022
284 2.01500 5034.04094 5196.94350 0.00019
285 2.02000 5296.67587 5446.47550 0.00018
286 2.02500 5084.38358 5248.94590 0.00019
287 2.03000 4561.11217 4739.28900 0.00021
288 2.03500 4010.93785 4132.89940 0.00024
289 2.04000 3589.96340 3648.64440 0.00027
290 2.04500 3329.08513 3370.47960 0.00030
291 2.05000 3191.02873 3220.30190 0.00031
292 2.05500 3124.07027 3144.42100 0.00032
293 2.06000 3090.97453 3112.93600 0.00032
294 2.06500 3072.58297 3098.09060 0.00032
295 2.07000 3060.96264 3085.33260 0.00032
296 2.07500 3053.11618 3080.22820 0.00032
297 2.08000 3047.81686 3084.07490 0.00032
298 2.08500 3044.45621 3086.29610 0.00032
299 2.09000 3042.69529 3080.04100 0.00032
300 2.09500 3042.36114 3080.93680 0.00032
301 2.10000 3043.40860 3090.18980 0.00032
302 2.10500 3045.89520 3100.71650 0.00032
303 2.11000 3049.95956 3121.71560 0.00032
304 2.11500 3055.82987 3139.81190 0.00032
305 2.12000 3063.96125 3155.69190 0.00032
306 2.12500 3075.68123 3166.37030 0.00032
307 2.13000 3094.92025 3168.38200 0.00032
308 2.13500 3131.39139 3188.32950 0.00031
309 2.14000 3204.73127 3241.03230 0.00031
310 2.14500 3345.13340 3360.33570 0.00030
311 2.15000 3581.57223 3573.65370 0.00028
312 2.15500 3913.99621 3897.01280 0.00026
313 2.16000 4278.06039 4255.73860 0.00023
314 2.16500 4520.22809 4504.52730 0.00022
315 2.17000 4475.97041 4518.73840 0.00022
316 2.17500 4180.99676 4302.82170 0.00023
317 2.18000 3817.00289 3954.90590 0.00025
318 2.18500 3511.75215 3608.42230 0.00028
319 2.19000 3307.32969 3353.05120 0.00030
320 2.19500 3191.83738 3203.72530 0.00031
321 2.20000 3133.76536 3139.14160 0.00032
322 2.20500 3105.54287 3104.28180 0.00032
323 2.21000 3090.89954 3090.26040 0.00032
324 2.21500 3082.36215 3095.03460 0.00032
325 2.22000 3076.95235 3085.98280 0.00032
326 2.22500 3073.47413 3071.07450 0.00033
327 2.23000 3071.35447 3061.36170 0.00033
328 2.23500 3070.25713 3062.21310 0.00033
329 2.24000 3069.96832 3066.15000 0.00033
330 2.24500 3070.33010 3065.41530 0.00033
331 2.25000 3071.24689 3068.09870 0.00033
332 2.25500 3072.65457 3069.02330 0.00033
333 2.26000 3074.51853 3074.27620 0.00033
334 2.26500 3076.83121 3073.51600 0.00033
335 2.27000 3079.61387 3074.72980 0.00033
336 2.27500 3082.93063 3082.05520 0.00032
337 2.28000 3086.89615 3080.23060 0.00032
338 2.28500 3091.79981 3084.00650 0.00032
339 2.29000 3098.35523 3097.26130 0.00032
340 2.29500 3108.32550 3103.11470 0.00032
341 2.30000 3125.47413 3120.41760 0.00032
342 2.30500 3156.05734 3143.30790 0.00032
343 2.31000 3207.08120 3189.46580 0.00031
344 2.31500 3281.00796 3248.75580 0.00031
345 2.32000 3367.93974 3314.06310 0.00030
346 2.32500 3437.73508 3368.06610 0.00030
347 2.33000 3448.16081 3365.14830 0.00030
348 2.33500 3394.01937 3325.56710 0.00030
349 2.34000 3315.30874 3272.98250 0.00031
350 2.34500 3246.23865 3206.32800 0.00031
351 2.35000 3200.21092 3171.31110 0.00032
352 2.35500 3177.22618 3157.76390 0.00032
353 2.36000 3172.63935 3144.52940 0.00032
354 2.36500 3183.99933 3147.79550 0.00032
355 2.37000 3214.26894 3165.14190 0.00032
356 2.37500 3269.02012 3197.66850 0.00031
357 2.38000 3349.99855 3253.54140 0.00031
358 2.38500 3445.67446 3321.70560 0.00030
359 2.39000 3521.95112 3383.79700 0.00030
360 2.39500 3531.22657 3412.39170 0.00029
361 2.40000 3467.96384 3386.39900 0.00030
362 2.40500 3377.14144 3336.63520 0.00030
363 2.41000 3296.72432 3276.00870 0.00031
364 2.41500 3241.11059 3225.46680 0.00031
365 2.42000 3209.33864 3196.10690 0.00031
366 2.42500 3194.02000 3182.51330 0.00031
367 2.43000 3187.80136 3175.09390 0.00031
368 2.43500 3185.96000 3178.08500 0.00031
369 2.44000 3186.17092 3178.89150 0.00031
370 2.44500 3187.45921 3179.20700 0.00031
371 2.45000 3189.42832 3186.29920 0.00031
372 2.45500 3191.89797 3184.69290 0.00031
373 2.46000 3194.77353 3184.90400 0.00031
374 2.46500 3198.00454 3188.93890 0.00031
375 2.47000 3201.57148 3193.05940 0.00031
376 2.47500 3205.48275 3199.64690 0.00031
377 2.48000 3209.77979 3200.06960 0.00031
378 2.48500 3214.56025 3210.59130 0.00031
379 2.49000 3220.05216 3217.16430 0.00031
380 2.49500 3226.76021 3217.98820 0.00031
381 2.50000 3236.05383 3233.03930 0.00031
382 2.50500 3250.32951 3246.91310 0.00031
383 2.51000 3273.17190 3271.81020 0.00031
384 2.51500 3307.86357 3298.59980 0.00030
385 2.52000 3354.23913 3325.19630 0.00030
386 2.52500 3404.41076 3365.54090 0.00030
387 2.53000 3439.06944 3388.17330 0.00030
388 2.53500 3438.40681 3383.50560 0.00030
389 2.54000 3409.78527 3366.93860 0.00030
390 2.54500 3377.89395 3355.94190 0.00030
391 2.55000 3361.11899 3350.99780 0.00030
392 2.55500 3371.31933 3367.52410 0.00030
393 2.56000 3418.97906 3418.66050 0.00029
394 2.56500 3513.49309 3532.68060 0.00028
395 2.57000 3655.89439 3691.25100 0.00027
396 2.57500 3825.24043 3868.56860 0.00026
397 2.58000 3962.38723 3985.82340 0.00025
398 2.58500 3982.94720 3984.24190 0.00025
399 2.59000 3871.97198 3875.55130 0.00026
400 2.59500 3706.56391 3705.44970 0.00027
401 2.60000 3555.81333 3554.55800 0.00028
402 2.60500 3447.44089 3448.54750 0.00029
403 2.61000 3381.71304 3394.04310 0.00029
404 2.61500 3346.67982 3370.19880 0.00030
405 2.62000 3329.35146 3354.20320 0.00030
406 2.62500 3320.82769 3333.86840 0.00030
407 2.63000 3316.43722 3335.05300 0.00030
408 2.63500 3314.13112 3333.86230 0.00030
409 2.64000 3313.04064 3338.21300 0.00030
410 2.64500 3312.76186 3346.69430 0.00030
411 2.65000 3313.06937 3344.42130 0.00030
412 2.65500 3313.81869 3347.25290 0.00030
413 2.66000 3314.91143 3347.58890 0.00030
414 2.66500 3316.27952 3348.28580 0.00030
415 2.67000 3317.87625 3352.22400 0.00030
416 2.67500 3319.67068 3355.76440 0.00030
417 2.68000 3321.64418 3358.05520 0.00030
418 2.68500 3323.78825 3353.16020 0.00030
419 2.69000 3326.10326 3354.89780 0.00030
420 2.69500 3328.60268 3363.73940 0.00030
421 2.70000 3331.29473 3364.44660 0.00030
422 2.70500 3334.21089 3365.73830 0.00030
423 2.71000 3337.38901 3369.82370 0.00030
424 2.71500 3340.88022 3371.36680 0.00030
425 2.72000 3344.75251 3370.23660 0.00030
426 2.72500 3349.09804 3379.98570 0.00030
427 2.73000 3354.03223 3393.31530 0.00029
428 2.73500 3359.71763 3399.12690 0.00029
429 2.74000 3366.37078 3399.49900 0.00029
430 2.74500 3374.28649 3408.84910 0.00029
431 2.75000 3383.87122 3427.98480 0.00029
432 2.75500 3395.70846 3458.78530 0.00029
433 2.76000 3410.71146 3484.71320 0.00029
434 2.76500 3430.55530 3509.59990 0.00028
435 2.77000 3458.93723 3521.83660 0.00028
436 2.77500 3504.37753 3538.76830 0.00028
437 2.78000 3584.87065 3581.51930 0.00028
438 2.78500 3731.92864 3673.60500 0.00027
439 2.79000 3986.69862 3865.75350 0.00026
440 2.79500 4379.85270 4229.90990 0.00024
441 2.80000 4894.47535 4788.30530 0.00021
442 2.80500 5414.72597 5381.71220 0.00019
443 2.81000 5691.15220 5671.21090 0.00018
444 2.81500 5521.52709 5550.02980 0.00018
445 2.82000 5040.05282 5108.19300 0.00020
446 2.82500 4515.13808 4553.99370 0.00022
447 2.83000 4095.91723 4086.93630 0.00024
448 2.83500 3818.81939 3791.81780 0.00026
449 2.84000 3662.01911 3644.57480 0.00027
450 2.84500 3586.85406 3575.77150 0.00028
451 2.85000 3564.09342 3547.40340 0.00028
452 2.85500 3583.68795 3564.25460 0.00028
453 2.86000 3653.20088 3625.63490 0.00028
454 2.86500 3788.96926 3764.08090 0.00027
455 2.87000 4000.18116 4007.44950 0.00025
456 2.87500 4266.36219 4323.28960 0.00023
457 2.88000 4507.90091 4587.56370 0.00022
458 2.88500 4586.90727 4667.87580 0.00021
459 2.89000 4452.20638 4539.51250 0.00022
460 2.89500 4227.59204 4291.13800 0.00023
461 2.90000 4048.86146 4046.40720 0.00025
462 2.90500 3982.07895 3916.51300 0.00026
463 2.91000 4038.43263 3938.14300 0.00025
464 2.91500 4183.77165 4080.77690 0.00025
465 2.92000 4349.58218 4285.32980 0.00023
466 2.92500 4468.72410 4430.70670 0.00023
467 2.93000 4473.36832 4448.07320 0.00022
468 2.93500 4337.02343 4334.19860 0.00023
469 2.94000 4139.60082 4138.68490 0.00024
470 2.94500 3956.35505 3930.62880 0.00025
471 2.95000 3796.11147 3763.23340 0.00027
472 2.95500 3651.85841 3620.62790 0.00028
473 2.96000 3533.01204 3516.96030 0.00028
474 2.96500 3445.13897 3444.83300 0.00029
475 2.97000 3384.60842 3389.71430 0.00030
476 2.97500 3344.64924 3356.22830 0.00030
477 2.98000 3318.48993 3334.04630 0.00030
478 2.98500 3300.81746 3321.77630 0.00030
479 2.99000 3288.29254 3313.42510 0.00030
480 2.99500 3279.30833 3304.42890 0.00030
481 3.00000 3273.60835 3298.21500 0.00030
482 3.00500 3272.29952 3295.56900 0.00030
483 3.01000 3278.32118 3293.31540 0.00030
484 3.01500 3296.75719 3305.57340 0.00030
485 3.02000 3333.73123 3340.40610 0.00030
486 3.02500 3392.80675 3399.45130 0.00029
487 3.03000 3468.75410 3475.72270 0.00029
488 3.03500 3538.33077 3551.90170 0.00028
489 3.04000 3558.23626 3576.91350 0.00028
490 3.04500 3507.05063 3549.60060 0.00028
491 3.05000 3418.11297 3468.88000 0.00029
492 3.05500 3330.92841 3365.97680 0.00030
493 3.06000 3263.27433 3283.58370 0.00030
494 3.06500 3217.01894 3228.16570 0.00031
495 3.07000 3187.30983 3197.92920 0.00031
496 3.07500 3167.90904 3175.33080 0.00031
497 3.08000 3154.06710 3160.66080 0.00032
498 3.08500 3143.06702 3145.09560 0.00032
499 3.09000 3133.64501 3132.26750 0.00032
500 3.09500 3125.34353 3126.86690 0.00032
501 3.10000 3118.17330 3123.31960 0.00032
502 3.10500 3112.51337 3116.45120 0.00032
503 3.11000 3109.02584 3121.95200 0.00032
504 3.11500 3108.34127 3123.09010 0.00032
505 3.12000 3110.45870 3132.22910 0.00032
506 3.12500 3113.74954 3146.09580 0.00032
507 3.13000 3113.76603 3151.02930 0.00032
508 3.13500 3105.27218 3141.15650 0.00032
509 3.14000 3089.19609 3120.01400 0.00032
510 3.14500 3071.14952 3096.90650 0.00032
511 3.15000 3054.83808 3072.78000 0.00033
512 3.15500 3041.36065 3043.19280 0.00033
513 3.16000 3030.46228 3023.94070 0.00033
514 3.16500 3021.41304 3009.22150 0.00033
515 3.17000 3013.53968 2998.51200 0.00033
516 3.17500 3006.43840 2995.19850 0.00033
517 3.18000 2999.97761 2990.19960 0.00033
518 3.18500 2994.26776 2983.51140 0.00034
519 3.19000 2989.74519 2976.62030 0.00034
520 3.19500 2987.38012 2967.09800 0.00034
521 3.20000 2989.08442 2961.55130 0.00034
522 3.20500 2997.78707 2972.48470 0.00034
523 3.21000 3016.72242 2987.18560 0.00033
524 3.21500 3047.45510 3009.61440 0.00033
525 3.22000 3086.34485 3030.86800 0.00033
526 3.22500 3119.76633 3062.01740 0.00033
527 3.23000 3125.07798 3071.29290 0.00033
528 3.23500 3096.99827 3060.23740 0.00033
529 3.24000 3055.83388 3044.54250 0.00033
530 3.24500 3019.55028 3029.24720 0.00033
531 3.25000 2993.55541 3013.57740 0.00033
532 3.25500 2972.49530 2993.06910 0.00033
533 3.26000 2947.79732 2966.04090 0.00034
534 3.26500 2919.28935 2925.89490 0.00034
535 3.27000 2892.16601 2883.79630 0.00035
536 3.27500 2869.29559 2854.99790 0.00035
537 3.28000 2850.99755 2832.23740 0.00035
538 3.28500 2836.40421 2818.68910 0.00035
539 3.29000 2824.32719 2808.79410 0.00036
540 3.29500 2813.77915 2793.61220 0.00036
541 3.30000 2804.16986 2783.91250 0.00036
542 3.30500 2795.27434 2772.01860 0.00036
543 3.31000 2787.15394 2762.89530 0.00036
544 3.31500 2780.08110 2764.03610 0.00036
545 3.32000 2774.40700 2767.04810 0.00036
546 3.32500 2770.29910 2772.14770 0.00036
547 3.33000 2767.30253 2773.94320 0.00036
548 3.33500 2763.64057 2780.06520 0.00036
549 3.34000 2756.24112 2777.36630 0.00036
550 3.34500 2744.07529 2762.62430 0.00036
551 3.35000 2729.77775 2741.04740 0.00036
552 3.35500 2715.90700 2720.46830 0.00037
553 3.36000 2703.43831 2703.34920 0.00037
554 3.36500 2692.40764 2683.09630 0.00037
555 3.37000 2682.46995 2666.00350 0.00038
556 3.37500 2673.22566 2656.39410 0.00038
557 3.38000 2664.37865 2643.39570 0.00038
558 3.38500 2655.75978 2631.35850 0.00038
559 3.39000 2647.28844 2621.39380 0.00038
560 3.39500 2638.85648 2613.47170 0.00038
561 3.40000 2630.61334 2605.53780 0.00038
562 3.40500 2622.45883 2595.09390 0.00039
563 3.41000 2614.41141 2579.73680 0.00039
564 3.41500 2606.48653 2574.59640 0.00039
565 3.42000 2598.70955 2569.51860 0.00039
566 3.42500 2591.10337 2561.21680 0.00039
567 3.43000 2583.72271 2554.14960 0.00039
568 3.43500 2576.64242 2550.46380 0.00039
569 3.44000 2570.02017 2546.52140 0.00039
570 3.44500 2564.16863 2543.15810 0.00039
571 3.45000 2559.73300 2548.50450 0.00039
572 3.45500 2557.91059 2545.42360 0.00039
573 3.46000 2560.52331 2551.12920 0.00039
574 3.46500 2569.59844 2572.51240 0.00039
575 3.47000 2586.18878 2594.83500 0.00039
576 3.47500 2608.20525 2623.94060 0.00038
577 3.48000 2626.74694 2649.12700 0.00038
578 3.48500 2626.20308 2652.04780 0.00038
579 3.49000 2601.62033 2634.35170 0.00038
580 3.49500 2566.92209 2603.87510 0.00038
581 3.50000 2535.35745 2573.28030 0.00039
582 3.50500 2511.44173 2541.86100 0.00039
583 3.51000 2494.00477 2521.37760 0.00040
584 3.51500 2479.78703 2503.20790 0.00040
585 3.52000 2467.17299 2485.94500 0.00040
586 3.52500 2456.04811 2469.44230 0.00040
587 3.53000 2445.42667 2460.25540 0.00041
588 3.53500 2433.90687 2448.65210 0.00041
589 3.54000 2421.71623 2427.23890 0.00041
590 3.54500 2410.03126 2409.71990 0.00041
591 3.55000 2399.44440 2393.61400 0.00042
592 3.55500 2389.97269 2385.43200 0.00042
593 3.56000 2381.44881 2374.49060 0.00042
594 3.56500 2373.65452 2365.20450 0.00042
595 3.57000 2366.49264 2354.56000 0.00042
596 3.57500 2359.97797 2352.02260 0.00043
597 3.58000 2354.36410 2349.14660 0.00043
598 3.58500 2350.20684 2340.29340 0.00043
599 3.59000 2348.36887 2336.86350 0.00043
600 3.59500 2349.79732 2339.54130 0.00043
601 3.60000 2354.94826 2339.40350 0.00043
602 3.60500 2362.70086 2340.77150 0.00043
603 3.61000 2368.50524 2338.73840 0.00043
604 3.61500 2364.83985 2336.13380 0.00043
605 3.62000 2350.07046 2328.39320 0.00043
606 3.62500 2331.61942 2315.60730 0.00043
607 3.63000 2316.44882 2302.65490 0.00043
608 3.63500 2307.74953 2294.70470 0.00044
609 3.64000 2306.26967 2287.58080 0.00044
610 3.64500 2310.86332 2283.90070 0.00044
611 3.65000 2317.40712 2280.42530 0.00044
612 3.65500 2317.67852 2274.67090 0.00044
613 3.66000 2305.00904 2270.41400 0.00044
614 3.66500 2283.39415 2264.75180 0.00044
615 3.67000 2260.90828 2250.65990 0.00044
616 3.67500 2241.66949 2236.57970 0.00045
617 3.68000 2226.46963 2229.87780 0.00045
618 3.68500 2214.65517 2223.78220 0.00045
619 3.69000 2205.17144 2217.68810 0.00045
620 3.69500 2197.10685 2209.18180 0.00045
621 3.70000 2189.87356 2202.80570 0.00045
622 3.70500 2183.15573 2191.75960 0.00046
623 3.71000 2176.81226 2187.72430 0.00046
624 3.71500 2170.78991 2183.74750 0.00046
625 3.72000 2165.08520 2182.18320 0.00046
626 3.72500 2159.73324 2177.20540 0.00046
627 3.73000 2154.78319 2162.13550 0.00046
628 3.73500 2150.32364 2153.45270 0.00046
629 3.74000 2146.47196 2149.66080 0.00047
630 3.74500 2143.41275 2151.06640 0.00046
631 3.75000 2141.57313 2149.59720 0.00047
632 3.75500 2142.01388 2150.85540 0.00046
633 3.76000 2146.50796 2151.28160 0.00046
634 3.76500 2156.98777 2152.28670 0.00046
635 3.77000 2174.61902 2172.42430 0.00046
636 3.77500 2197.94988 2204.79620 0.00045
637 3.78000 2219.56612 2230.44540 0.00045
638 3.78500 2227.30060 2249.02550 0.00044
639 3.79000 2218.23333 2257.14320 0.00044
640 3.79500 2199.19325 2243.62290 0.00045
641 3.80000 2172.88667 2213.53420 0.00045
642 3.80500 2142.41215 2178.73380 0.00046
643 3.81000 2114.21266 2139.83240 0.00047
644 3.81500 2091.69475 2108.93300 0.00047
645 3.82000 2074.81949 2089.87200 0.00048
646 3.82500 2062.29106 2077.89690 0.00048
647 3.83000 2052.69416 2072.11670 0.00048
648 3.83500 2044.91154 2063.11770 0.00048
649 3.84000 2038.21550 2059.73870 0.00049
650 3.84500 2032.19513 2059.50000 0.00049
651 3.85000 2026.63936 2055.06020 0.00049
652 3.85500 2021.43997 2044.96830 0.00049
653 3.86000 2016.54528 2037.91160 0.00049
654 3.86500 2011.89206 2029.88440 0.00049
655 3.87000 2007.55846 2027.56730 0.00049
656 3.87500 2003.52085 2022.69360 0.00049
657 3.88000 1999.81336 2012.58920 0.00050
658 3.88500 1996.49918 2014.88530 0.00050
659 3.89000 1993.68132 2009.64230 0.00050
660 3.89500 1991.53874 2005.10000 0.00050
661 3.90000 1990.41053 2002.39080 0.00050
662 3.90500 1990.97101 2003.13300 0.00050
663 3.91000 1994.50844 2005.61180 0.00050
664 3.91500 2003.18481 2014.06850 0.00050
665 3.92000 2019.93492 2026.05710 0.00049
666 3.92500 2047.56048 2052.23360 0.00049
667 3.93000 2086.58316 2089.70400 0.00048
668 3.93500 2130.68099 2129.33500 0.00047
669 3.94000 2160.02198 2149.64660 0.00047
670 3.94500 2150.90088 2154.92480 0.00046
671 3.95000 2108.56471 2131.51520 0.00047
672 3.95500 2058.99481 2087.65920 0.00048
673 3.96000 2018.28591 2045.06320 0.00049
674 3.96500 1990.92072 2013.34920 0.00050
675 3.97000 1976.58792 1993.23210 0.00050
676 3.97500 1973.70616 1987.51230 0.00050
677 3.98000 1980.54962 1999.01170 0.00050
678 3.98500 1994.55480 2014.23220 0.00050
679 3.99000 2009.51230 2032.80120 0.00049
680 3.99500 2013.97840 2041.19500 0.00049
681 4.00000 2002.27854 2031.18320 0.00049
682 4.00500 1984.04809 2009.48190 0.00050
683 4.01000 1971.05763 1985.12300 0.00050
684 4.01500 1968.81715 1968.08280 0.00051
685 4.02000 1978.15770 1963.43460 0.00051
686 4.02500 1996.51148 1966.33690 0.00051
687 4.03000 2016.91728 1975.20210 0.00051
688 4.03500 2026.49245 1978.26660 0.00051
689 4.04000 2013.17173 1970.59510 0.00051
690 4.04500 1980.96742 1950.19930 0.00051
691 4.05000 1944.44231 1926.84140 0.00052
692 4.05500 1913.30398 1907.20780 0.00052
693 4.06000 1890.15626 1885.95350 0.00053
694 4.06500 1874.12723 1871.34930 0.00053
695 4.07000 1863.40479 1864.31440 0.00054
696 4.07500 1856.45350 1856.64320 0.00054
697 4.08000 1852.49141 1849.64080 0.00054
698 4.08500 1851.48437 1850.31920 0.00054
699 4.09000 1853.81540 1850.56110 0.00054
700 4.09500 1859.68337 1854.29130 0.00054
701 4.10000 1868.00481 1866.95520 0.00054
702 4.10500 1874.48883 1876.50940 0.00053
703 4.11000 1872.26370 1878.57770 0.00053
704 4.11500 1860.21777 1866.81270 0.00054
705 4.12000 1845.38000 1852.53490 0.00054
706 4.12500 1833.18395 1834.39090 0.00055
707 4.13000 1825.39211 1821.20430 0.00055
708 4.13500 1821.72416 1815.40750 0.00055
709 4.14000 1820.29514 1810.74970 0.00055
710 4.14500 1817.35497 1808.07470 0.00055
711 4.15000 1810.22094 1796.31440 0.00056
712 4.15500 1800.40604 1789.03660 0.00056
713 4.16000 1790.73831 1785.37290 0.00056
714 4.16500 1782.48140 1782.06790 0.00056
715 4.17000 1775.76239 1784.07600 0.00056
716 4.17500 1770.30255 1770.86700 0.00056
717 4.18000 1765.71738 1765.19250 0.00057
718 4.18500 1761.72084 1763.10800 0.00057
719 4.19000 1758.06524 1760.14550 0.00057
720 4.19500 1754.80723 1756.76190 0.00057
721 4.20000 1751.86107 1754.01570 0.00057
722 4.20500 1749.31344 1749.86350 0.00057
723 4.21000 1747.26968 1745.92930 0.00057
724 4.21500 1746.04008 1742.42290 0.00057
725 4.22000 1746.09894 1739.29280 0.00057
726 4.22500 1748.23566 1740.47400 0.00057
727 4.23000 1753.24133 1740.94560 0.00057
728 4.23500 1761.63360 1742.95270 0.00057
729 4.24000 1772.84582 1752.74050 0.00057
730 4.24500 1783.94957 1759.49470 0.00057
731 4.25000 1790.91861 1772.05270 0.00056
732 4.25500 1790.10008 1769.98590 0.00056
733 4.26000 1779.29958 1760.70730 0.00057
734 4.26500 1761.08024 1756.95130 0.00057
735 4.27000 1741.96322 1747.37150 0.00057
736 4.27500 1726.04872 1732.82190 0.00058
737 4.28000 1714.06868 1718.95290 0.00058
738 4.28500 1705.36645 1709.04620 0.00059
739 4.29000 1699.02858 1704.24650 0.00059
740 4.29500 1694.33755 1697.53550 0.00059
741 4.30000 1690.94205 1689.16410 0.00059
742 4.30500 1688.84372 1680.12270 0.00060
743 4.31000 1688.40458 1678.52140 0.00060
744 4.31500 1690.16651 1676.15620 0.00060
745 4.32000 1694.56404 1680.07160 0.00060
746 4.32500 1701.21170 1681.39220 0.00059
747 4.33000 1707.41794 1670.94490 0.00060
748 4.33500 1707.45529 1664.77610 0.00060
749 4.34000 1698.41695 1667.88830 0.00060
750 4.34500 1684.83738 1665.76950 0.00060
751 4.35000 1671.84259 1654.74590 0.00060
752 4.35500 1661.29668 1650.12860 0.00061
753 4.36000 1653.20505 1642.96820 0.00061
754 4.36500 1647.08015 1641.65930 0.00061
755 4.37000 1642.33139 1642.76630 0.00061
756 4.37500 1638.56950 1635.07230 0.00061
757 4.38000 1635.60563 1626.83520 0.00061
758 4.38500 1633.36833 1627.51700 0.00061
759 4.39000 1631.74288 1625.33010 0.00062
760 4.39500 1630.27212 1625.44500 0.00062
761 4.40000 1627.94482 1623.23840 0.00062
762 4.40500 1624.13706 1618.01150 0.00062
763 4.41000 1619.59516 1618.70590 0.00062
764 4.41500 1615.30135 1622.34150 0.00062
765 4.42000 1611.66934 1618.59510 0.00062
766 4.42500 1608.79219 1615.40330 0.00062
767 4.43000 1606.73869 1612.65830 0.00062
768 4.43500 1605.69950 1610.40670 0.00062
769 4.44000 1606.03571 1612.71890 0.00062
770 4.44500 1608.28220 1611.18950 0.00062
771 4.45000 1613.06205 1618.91470 0.00062
772 4.45500 1620.77843 1630.34300 0.00061
773 4.46000 1630.73489 1633.23450 0.00061
774 4.46500 1641.01800 1633.42120 0.00061
775 4.47000 1651.01978 1630.31740 0.00061
776 4.47500 1661.84231 1626.66670 0.00061
777 4.48000 1671.28673 1629.48730 0.00061
778 4.48500 1669.93140 1626.76310 0.00061
779 4.49000 1652.40208 1609.52700 0.00062
780 4.49500 1627.26508 1591.49230 0.00063
781 4.50000 1604.15744 1579.95540 0.00063
782 4.50500 1586.36826 1573.65920 0.00064
783 4.51000 1573.71750 1569.09760 0.00064
784 4.51500 1565.11962 1560.80950 0.00064
785 4.52000 1559.55231 1553.74040 0.00064
786 4.52500 1556.42357 1554.89680 0.00064
787 4.53000 1555.58712 1552.37630 0.00064
788 4.53500 1557.07586 1550.28250 0.00065
789 4.54000 1560.53139 1550.83260 0.00064
790 4.54500 1563.98825 1547.96970 0.00065
791 4.55000 1563.25287 1540.76450 0.00065
792 4.55500 1556.13596 1539.50640 0.00065
793 4.56000 1545.91723 1537.91760 0.00065
794 4.56500 1536.31952 1532.27740 0.00065
795 4.57000 1528.64431 1532.95120 0.00065
796 4.57500 1522.91438 1533.60900 0.00065
797 4.58000 1518.75343 1526.19470 0.00066
798 4.58500 1515.81232 1523.23940 0.00066
799 4.59000 1513.90051 1522.12690 0.00066
800 4.59500 1513.05912 1523.20850 0.00066
801 4.60000 1513.62089 1529.79110 0.00065
802 4.60500 1516.28315 1527.03180 0.00065
803 4.61000 1522.17761 1534.50480 0.00065
804 4.61500 1532.70711 1547.68350 0.00065
805 4.62000 1549.05849 1559.90610 0.00064
806 4.62500 1570.62037 1571.44110 0.00064
807 4.63000 1591.28737 1579.53870 0.00063
808 4.63500 1597.96919 1584.40780 0.00063
809 4.64000 1585.00864 1578.47050 0.00063
810 4.64500 1563.78533 1559.80630 0.00064
811 4.65000 1545.93047 1544.05990 0.00065
812 4.65500 1535.43076 1533.75580 0.00065
813 4.66000 1532.81989 1527.85050 0.00065
814 4.66500 1539.12151 1535.51560 0.00065
815 4.67000 1556.91634 1553.76250 0.00064
816 4.67500 1589.61492 1584.96870 0.00063
817 4.68000 1639.59871 1630.33600 0.00061
818 4.68500 1703.93773 1687.23030 0.00059
819 4.69000 1767.77477 1729.66560 0.00058
820 4.69500 1799.50758 1741.30620 0.00057
821 4.70000 1771.47470 1708.77090 0.00059
822 4.70500 1699.75142 1651.49200 0.00061
823 4.71000 1623.23168 1589.00780 0.00063
824 4.71500 1561.98057 1536.96940 0.00065
825 4.72000 1518.39567 1500.27360 0.00067
826 4.72500 1488.85638 1485.21670 0.00067
827 4.73000 1468.91836 1477.48400 0.00068
828 4.73500 1455.01592 1478.22330 0.00068
829 4.74000 1444.77326 1475.79360 0.00068
830 4.74500 1436.78926 1462.74560 0.00068
831 4.75000 1430.29055 1456.43960 0.00069
832 4.75500 1424.84772 1456.58260 0.00069
833 4.76000 1420.21522 1452.40260 0.00069
834 4.76500 1416.25085 1449.11320 0.00069
835 4.77000 1412.87318 1449.72950 0.00069
836 4.77500 1410.02667 1443.01470 0.00069
837 4.78000 1407.62279 1442.07190 0.00069
838 4.78500 1405.44917 1442.35730 0.00069
839 4.79000 1403.25638 1436.83320 0.00070
840 4.79500 1401.11769 1435.05110 0.00070
841 4.80000 1399.35416 1429.21410 0.00070
842 4.80500 1398.20399 1428.04510 0.00070
843 4.81000 1397.83410 1433.11450 0.00070
844 4.81500 1398.45717 1434.46000 0.00070
845 4.82000 1400.44757 1435.55910 0.00070
846 4.82500 1404.47595 1434.80280 0.00070
847 4.83000 1411.66852 1439.93740 0.00069
848 4.83500 1423.71335 1457.39750 0.00069
849 4.84000 1442.77107 1478.95270 0.00068
850 4.84500 1470.78548 1511.81170 0.00066
851 4.85000 1507.02844 1551.54050 0.00064
852 4.85500 1542.66982 1589.61540 0.00063
853 4.86000 1562.71556 1616.00340 0.00062
854 4.86500 1567.71656 1617.01830 0.00062
855 4.87000 1572.37728 1610.78360 0.00062
856 4.87500 1579.27166 1613.70210 0.00062
857 4.88000 1578.37131 1609.08680 0.00062
858 4.88500 1563.55657 1606.60530 0.00062
859 4.89000 1536.14712 1581.87740 0.00063
860 4.89500 1499.35228 1543.85650 0.00065
861 4.90000 1460.50995 1500.47500 0.00067
862 4.90500 1427.90092 1460.16580 0.00068
863 4.91000 1404.31002 1429.66870 0.00070
864 4.91500 1388.73751 1410.85070 0.00071
865 4.92000 1379.48780 1395.38650 0.00072
866 4.92500 1375.40369 1393.50690 0.00072
867 4.93000 1376.11675 1396.62530 0.00072
868 4.93500 1381.86956 1395.12290 0.00072
869 4.94000 1392.86975 1398.84960 0.00071
870 4.94500 1407.41028 1403.27360 0.00071
871 4.95000 1418.83926 1407.16910 0.00071
872 4.95500 1419.34281 1412.29260 0.00071
873 4.96000 1412.42479 1414.75620 0.00071
874 4.96500 1408.49354 1418.41590 0.00071
875 4.97000 1412.77986 1420.81840 0.00070
876 4.97500 1423.26410 1425.12300 0.00070
877 4.98000 1430.97977 1423.07420 0.00070
878 4.98500 1427.81485 1415.68390 0.00071
879 4.99000 1418.66123 1410.23310 0.00071
880 4.99500 1414.49759 1408.47920 0.00071
881 5.00000 1419.96344 1412.80590 0.00071
882 5.00500 1430.25433 1423.65100 0.00070
883 5.01000 1432.49871 1427.20540 0.00070
884 5.01500 1421.01841 1425.60150 0.00070
885 5.02000 1405.71669 1419.04750 0.00070
886 5.02500 1393.75709 1401.73920 0.00071
887 5.03000 1381.37912 1379.82260 0.00072
888 5.03500 1364.24021 1360.98990 0.00073
889 5.04000 1345.94698 1336.50220 0.00075
890 5.04500 1331.11193 1323.91760 0.00076
891 5.05000 1320.93587 1317.25770 0.00076
892 5.05500 1315.05178 1315.86790 0.00076
893 5.06000 1313.04413 1318.43300 0.00076
894 5.06500 1314.83409 1313.96980 0.00076
895 5.07000 1320.58855 1315.82600 0.00076
896 5.07500 1330.09065 1326.64940 0.00075
897 5.08000 1341.51919 1332.59650 0.00075
898 5.08500 1349.47821 1337.14970 0.00075
899 5.09000 1345.93810 1333.86320 0.00075
900 5.09500 1331.05727 1321.24130 0.00076
901 5.10000 1313.52313 1308.68710 0.00076
902 5.10500 1298.90250 1292.36660 0.00077
903 5.11000 1288.14531 1282.12810 0.00078
904 5.11500 1280.54733 1277.37430 0.00078
905 5.12000 1275.20019 1273.66060 0.00079
906 5.12500 1271.38363 1264.75050 0.00079
907 5.13000 1268.63702 1258.98980 0.00079
908 5.13500 1266.73105 1261.47410 0.00079
909 5.14000 1265.61947 1257.84460 0.00080
910 5.14500 1265.40105 1255.00430 0.00080
911 5.15000 1266.28235 1258.33640 0.00079
912 5.15500 1268.49393 1264.53990 0.00079
913 5.16000 1271.95491 1267.07260 0.00079
914 5.16500 1275.52247 1270.22490 0.00079
915 5.17000 1277.31071 1269.49870 0.00079
916 5.17500 1277.80854 1259.90870 0.00079
917 5.18000 1279.93216 1260.16210 0.00079
918 5.18500 1285.58573 1261.12530 0.00079
919 5.19000 1293.92438 1266.05190 0.00079
920 5.19500 1300.05639 1269.17390 0.00079
921 5.20000 1298.50635 1273.33320 0.00079
922 5.20500 1291.68147 1279.28550 0.00078
923 5.21000 1285.32184 1280.47250 0.00078
924 5.21500 1280.25947 1278.72540 0.00078
925 5.22000 1274.57991 1278.37350 0.00078
926 5.22500 1269.15188 1273.59160 0.00079
927 5.23000 1266.34091 1265.44920 0.00079
928 5.23500 1266.85855 1259.93140 0.00079
929 5.24000 1270.00747 1255.17480 0.00080
930 5.24500 1273.92286 1249.25790 0.00080
931 5.25000 1274.28845 1246.07530 0.00080
932 5.25500 1267.91096 1238.07050 0.00081
933 5.26000 1257.51916 1230.11090 0.00081
934 5.26500 1247.42189 1220.26910 0.00082
935 5.27000 1239.44493 1216.97580 0.00082
936 5.27500 1233.58377 1210.13540 0.00083
937 5.28000 1229.33170 1205.07750 0.00083
938 5.28500 1226.22471 1205.97160 0.00083
939 5.29000 1223.93142 1201.97800 0.00083
940 5.29500 1222.28381 1196.86080 0.00084
941 5.30000 1221.23009 1197.97900 0.00083
942 5.30500 1220.82813 1199.49070 0.00083
943 5.31000 1221.17697 1202.76560 0.00083
944 5.31500 1222.24458 1207.05010 0.00083
945 5.32000 1223.37837 1208.77900 0.00083
946 5.32500 1223.20519 1204.54430 0.00083
947 5.33000 1221.39978 1205.39090 0.00083
948 5.33500 1219.40026 1204.88740 0.00083
949 5.34000 1218.28137 1201.75340 0.00083
950 5.34500 1217.74722 1203.24650 0.00083
951 5.35000 1216.45610 1199.44850 0.00083
952 5.35500 1213.58072 1190.23410 0.00084
953 5.36000 1210.05812 1185.51320 0.00084
954 5.36500 1206.91605 1183.79430 0.00084
955 5.37000 1204.41159 1181.80620 0.00085
956 5.37500 1202.44889 1175.57130 0.00085
957 5.38000 1200.88667 1177.01380 0.00085
958 5.38500 1199.61327 1177.74730 0.00085
959 5.39000 1198.56435 1172.33700 0.00085
960 5.39500 1197.71348 1171.19390 0.00085
961 5.40000 1197.05331 1170.98450 0.00085
962 5.40500 1196.63620 1171.81110 0.00085
963 5.41000 1196.53464 1168.17070 0.00086
964 5.41500 1196.88202 1166.73670 0.00086
965 5.42000 1197.88734 1169.78810 0.00085
966 5.42500 1199.81782 1170.76800 0.00085
967 5.43000 1202.82167 1174.99550 0.00085
968 5.43500 1206.26696 1176.38820 0.00085
969 5.44000 1207.97237 1181.06740 0.00085
970 5.44500 1206.23765 1188.31310 0.00084
971 5.45000 1202.71409 1184.85440 0.00084
972 5.45500 1199.75702 1184.55790 0.00084
973 5.46000 1197.93576 1184.17930 0.00084
974 5.46500 1196.44661 1179.63230 0.00085
975 5.47000 1194.42351 1180.32790 0.00085
976 5.47500 1192.18168 1176.38970 0.00085
977 5.48000 1190.39619 1169.06860 0.00086
978 5.48500 1189.28683 1167.85950 0.00086
979 5.49000 1188.82377 1170.22380 0.00085
980 5.49500 1188.96609 1176.30470 0.00085
981 5.50000 1189.74203 1179.82390 0.00085
982 5.50500 1191.26879 1184.50380 0.00084
983 5.51000 1193.76353 1188.28780 0.00084
984 5.51500 1197.48579 1190.76870 0.00084
985 5.52000 1202.41332 1192.38670 0.00084
986 5.52500 1207.39021 1193.28670 0.00084
987 5.53000 1210.18556 1193.93190 0.00084
988 5.53500 1210.63467 1194.84060 0.00084
989 5.54000 1211.21607 1199.16480 0.00083
990 5.54500 1213.73753 1202.96180 0.00083
991 5.55000 1218.82476 1207.92680 0.00083
992 5.55500 1226.87400 1214.07380 0.00082
993 5.56000 1238.57286 1222.72900 0.00082
994 5.56500 1255.15893 1233.40050 0.00081
995 5.57000 1278.69546 1249.92870 0.00080
996 5.57500 1312.44574 1285.67840 0.00078
997 5.58000 1361.07079 1338.57670 0.00075
998 5.58500 1429.83623 1420.08270 0.00070
999 5.59000 1522.17173 1544.52850 0.00065
1000 5.59500 1634.66076 1686.12540 0.00059
1001 5.60000 1741.18248 1812.53540 0.00055
1002 5.60500 1802.18916 1919.10430 0.00052
1003 5.61000 1829.31481 2000.45950 0.00050
1004 5.61500 1851.37584 2042.62950 0.00049
1005 5.62000 1832.92868 2023.96580 0.00049
1006 5.62500 1738.94544 1926.78430 0.00052
1007 5.63000 1613.43371 1766.66770 0.00057
1008 5.63500 1506.40574 1605.14320 0.00062
1009 5.64000 1427.00047 1477.53550 0.00068
1010 5.64500 1369.82635 1397.86500 0.00072
1011 5.65000 1332.27583 1351.17640 0.00074
1012 5.65500 1312.32800 1329.17730 0.00075
1013 5.66000 1307.44326 1323.61500 0.00076
1014 5.66500 1312.97301 1325.92750 0.00075
1015 5.67000 1317.78077 1332.68530 0.00075
1016 5.67500 1310.18133 1342.13880 0.00075
1017 5.68000 1294.96692 1346.93940 0.00074
1018 5.68500 1284.70960 1354.05230 0.00074
1019 5.69000 1282.88754 1352.96010 0.00074
1020 5.69500 1283.34325 1347.93310 0.00074
1021 5.70000 1280.01139 1339.30540 0.00075
1022 5.70500 1277.41327 1329.00460 0.00075
1023 5.71000 1283.48953 1319.64060 0.00076
1024 5.71500 1300.84076 1333.02950 0.00075
1025 5.72000 1326.06289 1367.67550 0.00073
1026 5.72500 1354.83272 1415.28840 0.00071
1027 5.73000 1389.49071 1478.21590 0.00068
1028 5.73500 1426.96467 1523.34410 0.00066
1029 5.74000 1445.02638 1529.87450 0.00065
1030 5.74500 1431.05373 1504.03830 0.00066
1031 5.75000 1408.36755 1466.79460 0.00068
1032 5.75500 1404.06634 1444.79350 0.00069
1033 5.76000 1428.62572 1457.42810 0.00069
1034 5.76500 1479.46539 1499.82540 0.00067
1035 5.77000 1541.50482 1550.35280 0.00065
1036 5.77500 1594.79153 1601.62890 0.00062
1037 5.78000 1623.20284 1637.07780 0.00061
1038 5.78500 1613.31188 1639.24620 0.00061
1039 5.79000 1563.48927 1597.60350 0.00063
1040 5.79500 1482.60534 1526.32530 0.00066
1041 5.80000 1393.92621 1435.69120 0.00070
1042 5.80500 1318.91679 1344.84870 0.00074
1043 5.81000 1262.86191 1276.17410 0.00078
1044 5.81500 1222.95646 1224.96640 0.00082
1045 5.82000 1195.22756 1186.46830 0.00084
1046 5.82500 1176.31596 1166.54200 0.00086
1047 5.83000 1163.62718 1155.18350 0.00087
1048 5.83500 1154.85099 1146.85570 0.00087
1049 5.84000 1148.03423 1143.61480 0.00087
1050 5.84500 1142.84561 1141.50790 0.00088
1051 5.85000 1140.07256 1146.15880 0.00087
1052 5.85500 1139.19538 1146.27380 0.00087
1053 5.86000 1137.25209 1146.87690 0.00087
1054 5.86500 1131.40146 1142.58130 0.00088
1055 5.87000 1122.98652 1129.71970 0.00089
1056 5.87500 1115.28459 1113.36880 0.00090
1057 5.88000 1109.98828 1101.78610 0.00091
1058 5.88500 1107.47794 1098.53910 0.00091
1059 5.89000 1107.82509 1095.98050 0.00091
1060 5.89500 1111.14294 1098.21860 0.00091
1061 5.90000 1117.72104 1103.98730 0.00091
1062 5.90500 1128.37945 1107.62110 0.00090
1063 5.91000 1143.94815 1117.63570 0.00089
1064 5.91500 1162.42348 1131.20810 0.00088
1065 5.92000 1175.70634 1147.47850 0.00087
1066 5.92500 1174.81358 1149.02350 0.00087
1067 5.93000 1162.59106 1145.15420 0.00087
1068 5.93500 1149.34563 1142.65330 0.00088
1069 5.94000 1140.73988 1133.86130 0.00088
1070 5.94500 1135.76368 1123.24880 0.00089
1071 5.95000 1128.53077 1110.85410 0.00090
1072 5.95500 1115.01254 1100.55370 0.00091
1073 5.96000 1098.36013 1084.00060 0.00092
1074 5.96500 1083.24018 1069.76780 0.00093
1075 5.97000 1071.30896 1055.53700 0.00095
1076 5.97500 1062.30757 1046.18410 0.00096
1077 5.98000 1055.53678 1040.04930 0.00096
1078 5.98500 1050.39261 1035.78100 0.00097
1079 5.99000 1046.45496 1032.39560 0.00097
1080 5.99500 1043.47537 1027.88060 0.00097
1081 6.00000 1041.35095 1024.98510 0.00098
1082 6.00500 1040.05060 1022.49930 0.00098
1083 6.01000 1039.53478 1023.00010 0.00098
1084 6.01500 1039.52204 1023.75510 0.00098
1085 6.02000 1039.20524 1027.14960 0.00097
1086 6.02500 1037.67026 1027.68400 0.00097
1087 6.03000 1035.08897 1025.46420 0.00098
1088 6.03500 1032.56901 1027.56620 0.00097
1089 6.04000 1030.96924 1028.04480 0.00097
1090 6.04500 1030.60521 1026.79450 0.00097
1091 6.05000 1031.35334 1033.24440 0.00097
1092 6.05500 1032.48844 1034.83410 0.00097
1093 6.06000 1032.85354 1033.30860 0.00097
1094 6.06500 1032.18422 1032.35810 0.00097
1095 6.07000 1031.51867 1025.01200 0.00098
1096 6.07500 1031.50836 1018.52840 0.00098
1097 6.08000 1031.47235 1022.59140 0.00098
1098 6.08500 1030.55920 1017.49970 0.00098
1099 6.09000 1029.30956 1020.26670 0.00098
1100 6.09500 1028.53930 1020.89060 0.00098
1101 6.10000 1027.54358 1020.01330 0.00098
1102 6.10500 1024.64758 1016.75450 0.00098
1103 6.11000 1019.72792 1015.90440 0.00098
1104 6.11500 1014.38488 1008.57330 0.00099
1105 6.12000 1009.72091 1003.08550 0.00100
1106 6.12500 1005.67317 1001.29800 0.00100
1107 6.13000 1001.87057 995.39232 0.00100
1108 6.13500 998.35440 988.95505 0.00101
1109 6.14000 995.36220 981.94777 0.00102
1110 6.14500 992.96242 985.36970 0.00101
1111 6.15000 991.10578 982.71128 0.00102
1112 6.15500 989.77428 977.89167 0.00102
1113 6.16000 988.92485 975.95069 0.00102
1114 6.16500 988.59358 975.28200 0.00103
1115 6.17000 988.87850 976.96084 0.00102
1116 6.17500 989.94533 978.09245 0.00102
1117 6.18000 992.01725 979.28946 0.00102
1118 6.18500 995.32553 980.52145 0.00102
1119 6.19000 999.93419 979.22379 0.00102
1120 6.19500 1005.27980 980.98956 0.00102
1121 6.20000 1009.63096 984.38568 0.00102
1122 6.20500 1010.96964 987.78961 0.00101
1123 6.21000 1009.59461 985.84472 0.00101
1124 6.21500 1008.09896 986.89212 0.00101
1125 6.22000 1008.83719 990.67318 0.00101
1126 6.22500 1013.15914 995.07080 0.00100
1127 6.23000 1021.93508 994.65557 0.00101
1128 6.23500 1035.78108 1001.64650 0.00100
1129 6.24000 1054.46018 1015.65190 0.00098
1130 6.24500 1075.12212 1029.93840 0.00097
1131 6.25000 1090.78710 1040.11320 0.00096
1132 6.25500 1094.57239 1048.02650 0.00095
1133 6.26000 1088.10262 1055.38070 0.00095
1134 6.26500 1079.38290 1059.70310 0.00094
1135 6.27000 1073.78448 1064.91100 0.00094
1136 6.27500 1070.85642 1066.20550 0.00094
1137 6.28000 1066.37293 1061.65760 0.00094
1138 6.28500 1058.23074 1045.66780 0.00096
1139 6.29000 1049.72529 1033.88910 0.00097
1140 6.29500 1045.18818 1024.16860 0.00098
1141 6.30000 1046.02125 1021.71990 0.00098
1142 6.30500 1050.16035 1022.49850 0.00098
1143 6.31000 1053.39095 1025.60530 0.00098
1144 6.31500 1053.55964 1031.49190 0.00097
1145 6.32000 1052.89384 1036.97440 0.00096
1146 6.32500 1053.41711 1039.06840 0.00096
1147 6.33000 1052.52881 1037.40880 0.00096
1148 6.33500 1045.40539 1027.86200 0.00097
1149 6.34000 1031.61650 1017.48140 0.00098
1150 6.34500 1015.88315 1009.46110 0.00099
1151 6.35000 1002.61155 1004.57580 0.00100
1152 6.35500 993.28044 1002.05480 0.00100
1153 6.36000 987.06125 995.61625 0.00100
1154 6.36500 981.75800 989.52081 0.00101
1155 6.37000 975.32565 982.48937 0.00102
1156 6.37500 967.74774 972.30405 0.00103
1157 6.38000 960.40504 963.10341 0.00104
1158 6.38500 954.29803 960.48483 0.00104
1159 6.39000 949.66081 955.25755 0.00105
1160 6.39500 946.30380 950.14162 0.00105
1161 6.40000 943.85381 944.81514 0.00106
1162 6.40500 941.92465 946.57452 0.00106
1163 6.41000 940.37455 945.68336 0.00106
1164 6.41500 939.29927 946.23962 0.00106
1165 6.42000 938.74931 946.70721 0.00106
1166 6.42500 938.46142 946.18653 0.00106
1167 6.43000 937.94560 942.65405 0.00106
1168 6.43500 936.94898 943.39171 0.00106
1169 6.44000 935.78696 941.20579 0.00106
1170 6.44500 934.97562 936.01836 0.00107
1171 6.45000 934.82698 939.41446 0.00106
1172 6.45500 935.43766 941.04249 0.00106
1173 6.46000 936.80705 939.03739 0.00106
1174 6.46500 938.99743 939.65537 0.00106
1175 6.47000 942.17890 946.87444 0.00106
1176 6.47500 946.41299 955.38610 0.00105
1177 6.48000 951.59730 954.14875 0.00105
1178 6.48500 957.82381 954.41125 0.00105
1179 6.49000 965.79350 957.91929 0.00104
1180 6.49500 976.22295 969.21306 0.00103
1181 6.50000 988.95326 987.78259 0.00101
1182 6.50500 1002.88800 1011.43690 0.00099
1183 6.51000 1016.69905 1034.19550 0.00097
1184 6.51500 1028.32904 1053.29810 0.00095
1185 6.52000 1034.67436 1066.24210 0.00094
1186 6.52500 1035.03996 1064.69910 0.00094
1187 6.53000 1033.08094 1062.26630 0.00094
1188 6.53500 1032.54556 1061.33450 0.00094
1189 6.54000 1033.40503 1069.79220 0.00093
1190 6.54500 1032.12909 1082.02360 0.00092
1191 6.55000 1025.30515 1078.79360 0.00093
1192 6.55500 1013.40557 1065.52510 0.00094
1193 6.56000 999.18649 1047.52370 0.00095
1194 6.56500 984.66107 1021.89230 0.00098
1195 6.57000 971.41401 1007.07280 0.00099
1196 6.57500 960.82708 992.95149 0.00101
1197 6.58000 953.40403 980.06333 0.00102
1198 6.58500 948.71577 967.91277 0.00103
1199 6.59000 945.98032 958.94860 0.00104
1200 6.59500 944.60971 951.94766 0.00105
1201 6.60000 944.01516 952.84027 0.00105
1202 6.60500 943.18484 953.93790 0.00105
1203 6.61000 941.31805 959.66588 0.00104
1204 6.61500 938.69244 965.09595 0.00104
1205 6.62000 935.98431 966.94241 0.00103
1206 6.62500 933.19183 966.14966 0.00104
1207 6.63000 929.93921 962.87493 0.00104
1208 6.63500 926.44036 956.75286 0.00105
1209 6.64000 923.46145 952.88686 0.00105
1210 6.64500 921.64035 945.56715 0.00106
1211 6.65000 921.24999 939.71953 0.00106
1212 6.65500 922.31672 944.07881 0.00106
1213 6.66000 924.70095 950.30338 0.00105
1214 6.66500 928.18121 947.05986 0.00106
1215 6.67000 932.63185 947.20807 0.00106
1216 6.67500 937.99922 943.40543 0.00106
1217 6.68000 944.12403 946.65496 0.00106
1218 6.68500 951.04771 952.71242 0.00105
1219 6.69000 959.35481 961.62545 0.00104
1220 6.69500 969.21561 970.33967 0.00103
1221 6.70000 978.95796 980.06084 0.00102
1222 6.70500 984.85626 990.82951 0.00101
1223 6.71000 983.49315 992.19829 0.00101
1224 6.71500 975.20580 984.07166 0.00102
1225 6.72000 963.68661 969.28966 0.00103
1226 6.72500 952.20438 955.75824 0.00105
1227 6.73000 941.80183 939.75778 0.00106
1228 6.73500 932.30914 926.82169 0.00108
1229 6.74000 923.76219 923.11709 0.00108
1230 6.74500 916.51413 917.48714 0.00109
1231 6.75000 910.73612 913.25707 0.00109
1232 6.75500 906.31225 909.47215 0.00110
1233 6.76000 903.00147 905.21820 0.00110
1234 6.76500 900.56349 906.76887 0.00110
1235 6.77000 898.80336 906.28509 0.00110
1236 6.77500 897.58286 906.54835 0.00110
1237 6.78000 896.81465 903.49830 0.00111
1238 6.78500 896.45769 902.55276 0.00111
1239 6.79000 896.51222 898.92131 0.00111
1240 6.79500 897.01434 901.63735 0.00111
1241 6.80000 898.02743 902.13832 0.00111
1242 6.80500 899.62937 902.87168 0.00111
1243 6.81000 901.86887 906.73941 0.00110
1244 6.81500 904.70048 909.12136 0.00110
1245 6.82000 907.90356 907.35414 0.00110
1246 6.82500 911.06882 908.32397 0.00110
1247 6.83000 913.64865 909.83143 0.00110
1248 6.83500 915.07020 911.10115 0.00110
1249 6.84000 915.05564 911.94299 0.00110
1250 6.84500 913.93113 917.46300 0.00109
1251 6.85000 912.44941 913.99342 0.00109
1252 6.85500 911.28250 909.08038 0.00110
1253 6.86000 910.73337 908.40673 0.00110
1254 6.86500 910.89885 905.09695 0.00110
1255 6.87000 911.96963 907.15726 0.00110
1256 6.87500 914.27546 907.95299 0.00110
1257 6.88000 918.13278 910.20107 0.00110
1258 6.88500 923.75830 910.04059 0.00110
1259 6.89000 931.27520 916.72679 0.00109
1260 6.89500 940.70919 924.81187 0.00108
1261 6.90000 951.70837 928.81804 0.00108
1262 6.90500 962.93082 936.76429 0.00107
1263 6.91000 971.97901 946.34513 0.00106
1264 6.91500 977.11062 957.52805 0.00104
1265 6.92000 979.29355 964.90871 0.00104
1266 6.92500 981.29446 972.70305 0.00103
1267 6.93000 984.95547 980.64656 0.00102
1268 6.93500 989.82529 990.67254 0.00101
1269 6.94000 993.62953 990.81631 0.00101
1270 6.94500 994.55613 986.30263 0.00101
1271 6.95000 993.60590 975.07787 0.00103
1272 6.95500 993.76185 969.40842 0.00103
1273 6.96000 997.29413 965.80114 0.00104
1274 6.96500 1004.29606 968.54751 0.00103
1275 6.97000 1012.46649 971.39393 0.00103
1276 6.97500 1018.19343 982.03732 0.00102
1277 6.98000 1019.46041 984.78505 0.00102
1278 6.98500 1017.56461 990.38967 0.00101
1279 6.99000 1014.81778 996.86853 0.00100
1280 6.99500 1011.63164 1000.37700 0.00100
1281 7.00000 1006.46041 998.27923 0.00100
1282 7.00500 998.10577 992.84406 0.00101
1283 7.01000 987.34105 980.79986 0.00102
1284 7.01500 975.99834 965.88506 0.00104
1285 7.02000 965.37699 949.57756 0.00105
1286 7.02500 955.62742 937.38568 0.00107
1287 7.03000 946.33427 935.02472 0.00107
1288 7.03500 937.55344 928.71508 0.00108
1289 7.04000 929.91374 921.88640 0.00108
1290 7.04500 923.96767 917.99981 0.00109
1291 7.05000 919.86545 917.44818 0.00109
1292 7.05500 917.41069 916.46408 0.00109
1293 7.06000 916.14203 915.45218 0.00109
1294 7.06500 915.39927 911.10386 0.00110
1295 7.07000 914.57474 909.03797 0.00110
1296 7.07500 913.45810 913.52891 0.00109
1297 7.08000 912.18124 911.31221 0.00110
1298 7.08500 910.92101 910.44949 0.00110
1299 7.09000 909.96180 908.37102 0.00110
1300 7.09500 909.44573 907.82642 0.00110
1301 7.10000 909.34691 910.38484 0.00110
1302 7.10500 909.31745 915.36889 0.00109
1303 7.11000 908.93384 912.76990 0.00110
1304 7.11500 907.80344 909.62540 0.00110
1305 7.12000 906.02392 906.44803 0.00110
1306 7.12500 904.04757 905.84749 0.00110
1307 7.13000 902.34002 908.52057 0.00110
1308 7.13500 901.22470 904.13050 0.00111
1309 7.14000 900.85517 904.18802 0.00111
1310 7.14500 901.27504 906.43678 0.00110
1311 7.15000 902.43952 906.09649 0.00110
1312 7.15500 904.20272 908.76024 0.00110
1313 7.16000 906.32913 909.60113 0.00110
1314 7.16500 908.61692 911.93532 0.00110
1315 7.17000 911.00578 911.33734 0.00110
1316 7.17500 913.42531 912.69731 0.00110
1317 7.18000 915.65600 916.64403 0.00109
1318 7.18500 917.43744 918.45720 0.00109
1319 7.19000 918.71455 917.38437 0.00109
1320 7.19500 919.41153 918.16968 0.00109
1321 7.20000 919.22908 918.09302 0.00109
1322 7.20500 918.01067 915.23958 0.00109
1323 7.21000 916.15861 913.15034 0.00110
1324 7.21500 914.36209 911.35523 0.00110
1325 7.22000 913.19629 912.44151 0.00110
1326 7.22500 912.95116 913.91248 0.00109
1327 7.23000 913.64292 911.65734 0.00110
1328 7.23500 915.07517 911.74082 0.00110
1329 7.24000 916.82642 912.43491 0.00110
1330 7.24500 918.17542 915.30870 0.00109
1331 7.25000 918.32220 915.88176 0.00109
1332 7.25500 917.00764 911.05540 0.00110
1333 7.26000 914.68839 913.33804 0.00109
1334 7.26500 912.03822 914.03550 0.00109
1335 7.27000 909.47239 909.27089 0.00110
1336 7.27500 907.13605 911.13128 0.00110
1337 7.28000 905.16552 909.71526 0.00110
1338 7.28500 903.64740 908.56726 0.00110
1339 7.29000 902.69753 907.94912 0.00110
1340 7.29500 902.39843 903.47488 0.00111
1341 7.30000 902.78279 902.79239 0.00111
1342 7.30500 903.84101 899.78159 0.00111
1343 7.31000 905.52299 897.00076 0.00111
1344 7.31500 907.73516 900.84031 0.00111
1345 7.32000 910.31767 903.97743 0.00111
1346 7.32500 913.03478 902.86678 0.00111
1347 7.33000 915.45795 903.10785 0.00111
1348 7.33500 917.20414 908.03728 0.00110
1349 7.34000 918.29619 913.29771 0.00109
1350 7.34500 919.26108 911.94331 0.00110
1351 7.35000 920.57563 915.97183 0.00109
1352 7.35500 922.35287 917.59599 0.00109
1353 7.36000 924.37152 923.09197 0.00108
1354 7.36500 926.20109 928.35713 0.00108
1355 7.37000 927.50663 930.72395 0.00107
1356 7.37500 927.94153 930.89433 0.00107
1357 7.38000 927.08031 931.13273 0.00107
1358 7.38500 924.77112 929.85723 0.00108
1359 7.39000 921.45698 925.25095 0.00108
1360 7.39500 917.91420 918.99877 0.00109
1361 7.40000 914.78616 919.94698 0.00109
1362 7.40500 912.41274 916.15891 0.00109
1363 7.41000 910.90635 913.14528 0.00110
1364 7.41500 910.26433 915.61140 0.00109
1365 7.42000 910.43341 916.35940 0.00109
1366 7.42500 911.33012 919.03355 0.00109
1367 7.43000 912.81341 923.05262 0.00108
1368 7.43500 914.64531 927.91180 0.00108
1369 7.44000 916.49564 927.29889 0.00108
1370 7.44500 918.08172 927.48745 0.00108
1371 7.45000 919.35547 925.82852 0.00108
1372 7.45500 920.46419 924.25149 0.00108
1373 7.46000 921.52336 925.45840 0.00108
1374 7.46500 922.53734 926.10363 0.00108
1375 7.47000 923.51033 922.57570 0.00108
1376 7.47500 924.49369 930.03270 0.00108
1377 7.48000 925.63053 927.63959 0.00108
1378 7.48500 927.19913 928.58002 0.00108
1379 7.49000 929.54467 932.69902 0.00107
1380 7.49500 932.90606 935.16963 0.00107
1381 7.50000 937.28213 937.49995 0.00107
1382 7.50500 942.35110 943.30558 0.00106
1383 7.51000 947.44231 947.00564 0.00106
1384 7.51500 951.70921 954.38417 0.00105
1385 7.52000 954.57899 962.62818 0.00104
1386 7.52500 956.01134 967.24386 0.00103
1387 7.53000 956.14874 964.75894 0.00104
1388 7.53500 954.95882 962.40094 0.00104
1389 7.54000 952.51464 959.55309 0.00104
1390 7.54500 949.40079 952.63895 0.00105
1391 7.55000 946.56795 950.58204 0.00105
1392 7.55500 944.78852 950.41646 0.00105
1393 7.56000 944.48259 946.30419 0.00106
1394 7.56500 945.77217 947.51765 0.00106
1395 7.57000 948.60944 949.04171 0.00105
1396 7.57500 952.88296 951.69954 0.00105
1397 7.58000 958.41317 962.28369 0.00104
1398 7.58500 964.81825 968.96079 0.00103
1399 7.59000 971.44814 972.61046 0.00103
1400 7.59500 977.46661 980.02687 0.00102
1401 7.60000 982.23775 982.12738 0.00102
1402 7.60500 985.83281 978.25035 0.00102
1403 7.61000 989.11723 978.15389 0.00102
1404 7.61500 993.04394 979.46054 0.00102
1405 7.62000 997.79388 982.33665 0.00102
1406 7.62500 1002.48427 986.18796 0.00101
1407 7.63000 1005.73582 993.23051 0.00101
1408 7.63500 1006.91462 1002.06770 0.00100
1409 7.64000 1006.84763 1006.45990 0.00099
1410 7.64500 1007.09637 1004.83690 0.00100
1411 7.65000 1008.71995 1007.32670 0.00099
1412 7.65500 1011.66904 1013.41910 0.00099
1413 7.66000 1014.98450 1016.36700 0.00098
1414 7.66500 1017.58530 1014.28540 0.00099
1415 7.67000 1018.96284 1008.76380 0.00099
1416 7.67500 1019.08360 1005.96560 0.00099
1417 7.68000 1018.06529 1006.05630 0.00099
1418 7.68500 1016.24355 1008.46450 0.00099
1419 7.69000 1014.01791 1007.25420 0.00099
1420 7.69500 1011.38538 1004.94280 0.00100
1421 7.70000 1008.05514 1008.60520 0.00099
1422 7.70500 1004.05499 1014.67080 0.00099
1423 7.71000 999.80831 1014.01410 0.00099
1424 7.71500 995.59185 1007.46210 0.00099
1425 7.72000 991.23549 1003.08550 0.00100
1426 7.72500 986.38464 1000.24020 0.00100
1427 7.73000 981.01507 996.88720 0.00100
1428 7.73500 975.64397 991.01956 0.00101
1429 7.74000 970.98094 978.02566 0.00102
1430 7.74500 967.45294 974.02826 0.00103
1431 7.75000 965.03311 977.86777 0.00102
1432 7.75500 963.34417 980.71373 0.00102
1433 7.76000 961.89495 978.37882 0.00102
1434 7.76500 960.28026 977.11825 0.00102
1435 7.77000 958.26658 975.75186 0.00102
1436 7.77500 955.79623 976.72664 0.00102
1437 7.78000 952.98022 972.01327 0.00103
1438 7.78500 950.08960 963.17264 0.00104
1439 7.79000 947.48555 959.33335 0.00104
1440 7.79500 945.48162 955.83921 0.00105
1441 7.80000 944.28164 950.43343 0.00105
1442 7.80500 943.99169 951.19262 0.00105
1443 7.81000 944.65717 955.10599 0.00105
1444 7.81500 946.28291 953.44537 0.00105
1445 7.82000 948.83034 951.71209 0.00105
1446 7.82500 952.16091 953.08560 0.00105
1447 7.83000 955.98863 955.76796 0.00105
1448 7.83500 959.90251 956.59324 0.00105
1449 7.84000 963.57014 957.95863 0.00104
1450 7.84500 966.98377 963.23637 0.00104
1451 7.85000 970.39371 965.97230 0.00104
1452 7.85500 973.91565 965.01350 0.00104
1453 7.86000 977.24476 971.33773 0.00103
1454 7.86500 979.78891 972.02485 0.00103
1455 7.87000 981.10972 971.71018 0.00103
1456 7.87500 981.17764 972.29072 0.00103
1457 7.88000 980.18189 973.97949 0.00103
1458 7.88500 978.24119 971.78723 0.00103
1459 7.89000 975.37799 974.27869 0.00103
1460 7.89500 971.71235 971.55250 0.00103
1461 7.90000 967.57116 964.86080 0.00104
1462 7.90500 963.38900 963.30789 0.00104
1463 7.91000 959.54683 960.83159 0.00104
1464 7.91500 956.26036 953.11613 0.00105
1465 7.92000 953.55426 948.75086 0.00105
1466 7.92500 951.32923 949.76829 0.00105
1467 7.93000 949.46357 952.45482 0.00105
1468 7.93500 947.85054 947.82762 0.00106
1469 7.94000 946.39065 948.46348 0.00105
1470 7.94500 945.02421 946.41657 0.00106
1471 7.95000 943.77366 946.70846 0.00106
1472 7.95500 942.71564 945.16946 0.00106
1473 7.96000 941.92405 942.91714 0.00106
1474 7.96500 941.47050 943.82554 0.00106
1475 7.97000 941.40921 942.44261 0.00106
1476 7.97500 941.76638 942.03794 0.00106
1477 7.98000 942.51161 943.77230 0.00106
1478 7.98500 943.52695 941.84064 0.00106
1479 7.99000 944.59234 941.50771 0.00106
1480 7.99500 945.42275 943.39136 0.00106
1481 8.00000 945.78634 943.44393 0.00106
1482 8.00500 945.64136 942.06452 0.00106
1483 8.01000 945.16000 939.75967 0.00106
1484 8.01500 944.60597 941.01979 0.00106
1485 8.02000 944.18091 943.26001 0.00106
1486 8.02500 943.95269 944.30238 0.00106
1487 8.03000 943.86892 940.57183 0.00106
1488 8.03500 943.78882 941.57905 0.00106
1489 8.04000 943.56698 943.70576 0.00106
1490 8.04500 943.07185 941.94543 0.00106
1491 8.05000 942.31475 938.18071 0.00107
1492 8.05500 941.44212 935.71372 0.00107
1493 8.06000 940.63566 937.04479 0.00107
1494 8.06500 940.02090 938.70721 0.00107
1495 8.07000 939.64190 943.61327 0.00106
1496 8.07500 939.46620 944.76638 0.00106
1497 8.08000 939.43133 945.41275 0.00106
1498 8.08500 939.43889 943.90257 0.00106
1499 8.09000 939.41582 944.00320 0.00106
1500 8.09500 939.33580 943.40328 0.00106
1501 8.10000 939.20982 938.39507 0.00107
1502 8.10500 939.05598 937.91916 0.00107
1503 8.11000 938.89302 936.54032 0.00107
1504 8.11500 938.75733 935.97836 0.00107
1505 8.12000 938.70478 938.20282 0.00107
1506 8.12500 938.81875 940.84266 0.00106
1507 8.13000 939.15799 943.03323 0.00106
1508 8.13500 939.76414 944.09495 0.00106
1509 8.14000 940.65698 940.43465 0.00106
1510 8.14500 941.84932 942.16040 0.00106
1511 8.15000 943.37180 944.65766 0.00106
1512 8.15500 945.30300 947.52249 0.00106
1513 8.16000 947.74893 950.50597 0.00105
1514 8.16500 950.78875 949.87111 0.00105
1515 8.17000 954.43974 952.13120 0.00105
1516 8.17500 958.61377 955.42490 0.00105
1517 8.18000 963.07704 964.79595 0.00104
1518 8.18500 967.40548 976.11775 0.00102
1519 8.19000 970.99272 980.11509 0.00102
1520 8.19500 973.25230 981.21557 0.00102
1521 8.20000 974.00040 980.27983 0.00102
1522 8.20500 973.65302 977.51763 0.00102
1523 8.21000 972.96024 975.73007 0.00102
1524 8.21500 972.60974 972.69867 0.00103
1525 8.22000 972.99564 976.34015 0.00102
1526 8.22500 974.17164 977.21905 0.00102
1527 8.23000 975.91406 976.13168 0.00102
1528 8.23500 977.89842 979.22962 0.00102
1529 8.24000 979.91512 981.34958 0.00102
1530 8.24500 981.91123 982.50478 0.00102
1531 8.25000 983.78649 983.33658 0.00102
1532 8.25500 985.18581 981.86561 0.00102
1533 8.26000 985.56182 979.49480 0.00102
1534 8.26500 984.53188 976.60218 0.00102
1535 8.27000 982.23539 971.17385 0.00103
1536 8.27500 979.29155 969.51779 0.00103
1537 8.28000 976.38557 964.67011 0.00104
1538 8.28500 973.89633 960.02489 0.00104
1539 8.29000 971.80494 963.01741 0.00104
1540 8.29500 969.86688 962.39658 0.00104
1541 8.30000 967.91662 959.98328 0.00104
1542 8.30500 966.09433 956.31077 0.00105
1543 8.31000 964.79338 958.67254 0.00104
1544 8.31500 964.43909 962.56858 0.00104
1545 8.32000 965.33046 962.09284 0.00104
1546 8.32500 967.59671 959.75680 0.00104
1547 8.33000 971.18833 961.30604 0.00104
1548 8.33500 975.83846 962.61430 0.00104
1549 8.34000 980.99502 966.33808 0.00103
1550 8.34500 985.80922 972.81693 0.00103
1551 8.35000 989.31879 977.94358 0.00102
1552 8.35500 990.85423 980.71253 0.00102
1553 8.36000 990.40138 978.10428 0.00102
1554 8.36500 988.58363 979.33015 0.00102
1555 8.37000 986.26383 973.93548 0.00103
1556 8.37500 984.10914 965.97131 0.00104
1557 8.38000 982.39688 965.70576 0.00104
1558 8.38500 981.07174 966.42390 0.00103
1559 8.39000 979.90318 965.52609 0.00104
1560 8.39500 978.68796 966.82888 0.00103
1561 8.40000 977.42482 965.44518 0.00104
1562 8.40500 976.31329 967.14120 0.00103
1563 8.41000 975.54963 966.92622 0.00103
1564 8.41500 975.15299 966.23312 0.00103
1565 8.42000 974.89865 961.58014 0.00104
1566 8.42500 974.38151 960.61971 0.00104
1567 8.43000 973.24265 965.31487 0.00104
1568 8.43500 971.35380 962.22797 0.00104
1569 8.44000 968.90707 954.95587 0.00105
1570 8.44500 966.28559 956.17606 0.00105
1571 8.45000 963.84844 956.69293 0.00105
1572 8.45500 961.74345 950.64708 0.00105
1573 8.46000 959.84682 948.71156 0.00105
1574 8.46500 957.92727 952.59566 0.00105
1575 8.47000 955.82082 952.99489 0.00105
1576 8.47500 953.55030 952.60852 0.00105
1577 8.48000 951.22006 954.50607 0.00105
1578 8.48500 948.88750 955.18602 0.00105
1579 8.49000 946.55947 954.62535 0.00105
1580 8.49500 944.24122 950.09858 0.00105
1581 8.50000 941.97476 946.56942 0.00106
1582 8.50500 939.81227 944.44283 0.00106
1583 8.51000 937.79709 941.41941 0.00106
1584 8.51500 935.97736 938.12533 0.00107
1585 8.52000 934.40772 934.49686 0.00107
1586 8.52500 933.10899 932.91669 0.00107
1587 8.53000 932.02166 936.74131 0.00107
1588 8.53500 930.99407 935.65648 0.00107
1589 8.54000 929.85144 934.22910 0.00107
1590 8.54500 928.50446 936.29530 0.00107
1591 8.55000 926.99795 934.14275 0.00107
1592 8.55500 925.46014 929.92117 0.00108
1593 8.56000 923.99819 930.87265 0.00107
1594 8.56500 922.65784 928.25385 0.00108
1595 8.57000 921.42438 927.15767 0.00108
1596 8.57500 920.24337 925.91109 0.00108
1597 8.58000 919.04226 923.94876 0.00108
1598 8.58500 917.77136 924.55465 0.00108
1599 8.59000 916.43584 925.13578 0.00108
1600 8.59500 915.10243 920.82512 0.00109
1601 8.60000 913.85492 920.14978 0.00109
1602 8.60500 912.75584 918.30565 0.00109
1603 8.61000 911.84137 922.77846 0.00108
1604 8.61500 911.12644 923.29000 0.00108
1605 8.62000 910.59785 919.31444 0.00109
1606 8.62500 910.20590 917.21953 0.00109
1607 8.63000 909.87417 912.27836 0.00110
1608 8.63500 909.52936 913.69561 0.00109
1609 8.64000 909.13293 916.77699 0.00109
1610 8.64500 908.67446 916.08663 0.00109
1611 8.65000 908.13487 917.06634 0.00109
1612 8.65500 907.45888 918.09783 0.00109
1613 8.66000 906.57981 916.00264 0.00109
1614 8.66500 905.48494 912.98727 0.00110
1615 8.67000 904.23470 910.83298 0.00110
1616 8.67500 902.93228 912.15158 0.00110
1617 8.68000 901.66614 907.27936 0.00110
1618 8.68500 900.48178 910.84898 0.00110
1619 8.69000 899.38792 912.53290 0.00110
1620 8.69500 898.37864 908.51500 0.00110
1621 8.70000 897.45915 905.92773 0.00110
1622 8.70500 896.62926 904.53421 0.00111
1623 8.71000 895.89837 901.37193 0.00111
1624 8.71500 895.27946 899.45690 0.00111
1625 8.72000 894.78823 900.09458 0.00111
1626 8.72500 894.44021 900.50130 0.00111
1627 8.73000 894.25534 901.79956 0.00111
1628 8.73500 894.25139 902.60088 0.00111
1629 8.74000 894.45047 902.76413 0.00111
1630 8.74500 894.87791 899.27567 0.00111
1631 8.75000 895.56104 898.17194 0.00111
1632 8.75500 896.52800 900.87186 0.00111
1633 8.76000 897.80808 907.09170 0.00110
1634 8.76500 899.43235 909.62910 0.00110
1635 8.77000 901.42710 909.40066 0.00110
1636 8.77500 903.79218 910.59621 0.00110
1637 8.78000 906.46530 912.31448 0.00110
1638 8.78500 909.28579 918.96046 0.00109
1639 8.79000 911.98861 925.55334 0.00108
1640 8.79500 914.26818 929.69011 0.00108
1641 8.80000 915.90615 931.94077 0.00107
1642 8.80500 916.86417 927.40022 0.00108
1643 8.81000 917.24422 928.50122 0.00108
1644 8.81500 917.16345 930.24767 0.00107
1645 8.82000 916.68134 923.81548 0.00108
1646 8.82500 915.84411 917.29448 0.00109
1647 8.83000 914.77455 918.09701 0.00109
1648 8.83500 913.69400 915.19711 0.00109
1649 8.84000 912.84889 910.79182 0.00110
1650 8.84500 912.42237 911.52529 0.00110
1651 8.85000 912.49511 911.93366 0.00110
1652 8.85500 913.04626 913.99411 0.00109
1653 8.86000 913.96788 913.70885 0.00109
1654 8.86500 915.09963 915.02565 0.00109
1655 8.87000 916.29652 918.20771 0.00109
1656 8.87500 917.50770 918.98812 0.00109
1657 8.88000 918.78550 919.47231 0.00109
1658 8.88500 920.19680 918.46243 0.00109
1659 8.89000 921.70849 919.93745 0.00109
1660 8.89500 923.11324 921.69219 0.00108
1661 8.90000 924.05595 918.96434 0.00109
1662 8.90500 924.17155 918.29485 0.00109
1663 8.91000 923.25975 920.97925 0.00109
1664 8.91500 921.37681 920.72466 0.00109
1665 8.92000 918.80715 918.49376 0.00109
1666 8.92500 915.95667 911.37514 0.00110
1667 8.93000 913.21641 909.26013 0.00110
1668 8.93500 910.86498 906.50481 0.00110
1669 8.94000 909.03447 904.34207 0.00111
1670 8.94500 907.72320 903.63829 0.00111
1671 8.95000 906.83547 907.62840 0.00110
1672 8.95500 906.24093 907.12748 0.00110
1673 8.96000 905.83197 904.56374 0.00111
1674 8.96500 905.54582 901.00614 0.00111
1675 8.97000 905.35655 900.27639 0.00111
1676 8.97500 905.26151 900.31469 0.00111
1677 8.98000 905.28557 900.15184 0.00111
1678 8.98500 905.47217 899.74432 0.00111
1679 8.99000 905.85487 895.92106 0.00112
1680 8.99500 906.35573 892.94776 0.00112
1681 9.00000 906.78181 895.94719 0.00112
1682 9.00500 906.87854 896.98841 0.00111
1683 9.01000 906.44889 897.71097 0.00111
1684 9.01500 905.46660 899.77981 0.00111
1685 9.02000 904.09967 902.07796 0.00111
1686 9.02500 902.61728 897.95250 0.00111
1687 9.03000 901.24408 899.53796 0.00111
1688 9.03500 900.09238 900.07991 0.00111
1689 9.04000 899.11969 894.90538 0.00112
1690 9.04500 898.19438 893.10350 0.00112
1691 9.05000 897.15356 891.61854 0.00112
1692 9.05500 895.86927 886.82100 0.00113
1693 9.06000 894.29335 883.78260 0.00113
1694 9.06500 892.45675 886.46760 0.00113
1695 9.07000 890.44779 890.07635 0.00112
1696 9.07500 888.39867 887.56137 0.00113
1697 9.08000 886.45748 883.74346 0.00113
1698 9.08500 884.77393 879.10453 0.00114
1699 9.09000 883.42085 876.75721 0.00114
1700 9.09500 882.40801 876.50999 0.00114
1701 9.10000 881.68787 877.52191 0.00114
1702 9.10500 881.17472 876.06155 0.00114
1703 9.11000 880.76682 873.52439 0.00114
1704 9.11500 880.37948 871.19171 0.00115
1705 9.12000 879.91179 869.60691 0.00115
1706 9.12500 879.27075 870.37834 0.00115
1707 9.13000 878.40245 870.17265 0.00115
1708 9.13500 877.31431 868.40929 0.00115
1709 9.14000 876.07354 864.54379 0.00116
1710 9.14500 874.77365 865.92435 0.00115
1711 9.15000 873.51020 867.46211 0.00115
1712 9.15500 872.36705 869.81797 0.00115
1713 9.16000 871.41288 868.01523 0.00115
1714 9.16500 870.67927 866.65892 0.00115
1715 9.17000 870.16536 866.46427 0.00115
1716 9.17500 869.83999 864.97978 0.00116
1717 9.18000 869.65000 862.10238 0.00116
1718 9.18500 869.53437 863.83630 0.00116
1719 9.19000 869.44603 865.69406 0.00116
1720 9.19500 869.37020 862.68259 0.00116
1721 9.20000 869.31987 863.07371 0.00116
1722 9.20500 869.30827 864.52843 0.00116
1723 9.21000 869.32175 863.29848 0.00116
1724 9.21500 869.31907 864.84563 0.00116
1725 9.22000 869.24323 865.68561 0.00116
1726 9.22500 869.05368 864.04911 0.00116
1727 9.23000 868.74468 864.84694 0.00116
1728 9.23500 868.34027 870.02990 0.00115
1729 9.24000 867.86233 875.30287 0.00114
1730 9.24500 867.31131 869.98012 0.00115
1731 9.25000 866.67436 871.44314 0.00115
1732 9.25500 865.95173 869.42392 0.00115
1733 9.26000 865.16922 866.71479 0.00115
1734 9.26500 864.37018 867.67202 0.00115
1735 9.27000 863.60015 866.56223 0.00115
1736 9.27500 862.89823 865.90617 0.00115
1737 9.28000 862.30230 864.52070 0.00116
1738 9.28500 861.84547 864.43170 0.00116
1739 9.29000 861.55958 867.41548 0.00115
1740 9.29500 861.47188 865.88889 0.00115
1741 9.30000 861.60196 864.81690 0.00116
1742 9.30500 861.96135 863.36520 0.00116
1743 9.31000 862.55064 865.49956 0.00116
1744 9.31500 863.35591 867.63690 0.00115
1745 9.32000 864.34819 870.77387 0.00115
1746 9.32500 865.48693 868.04162 0.00115
1747 9.33000 866.72132 869.74780 0.00115
1748 9.33500 867.98628 876.62079 0.00114
1749 9.34000 869.20598 878.89515 0.00114
1750 9.34500 870.31965 877.81797 0.00114
1751 9.35000 871.31972 882.09415 0.00113
1752 9.35500 872.25467 880.92660 0.00114
1753 9.36000 873.18921 883.57161 0.00113
1754 9.36500 874.14097 885.31099 0.00113
1755 9.37000 875.04171 883.48998 0.00113
1756 9.37500 875.75170 884.24567 0.00113
1757 9.38000 876.13192 883.70420 0.00113
1758 9.38500 876.11622 879.36646 0.00114
1759 9.39000 875.74083 878.15271 0.00114
1760 9.39500 875.09988 876.75883 0.00114
1761 9.40000 874.28959 878.59157 0.00114
1762 9.40500 873.40234 873.18422 0.00115
1763 9.41000 872.53210 869.83064 0.00115
1764 9.41500 871.77748 871.93611 0.00115
1765 9.42000 871.21075 872.01193 0.00115
1766 9.42500 870.84670 872.49423 0.00115
1767 9.43000 870.63970 871.65540 0.00115
1768 9.43500 870.51055 868.76203 0.00115
1769 9.44000 870.38441 871.61614 0.00115
1770 9.44500 870.21013 879.81173 0.00114
1771 9.45000 869.95273 878.27884 0.00114
1772 9.45500 869.59224 877.96478 0.00114
1773 9.46000 869.13571 877.03577 0.00114
1774 9.46500 868.62266 872.69597 0.00115
1775 9.47000 868.11522 873.00623 0.00115
1776 9.47500 867.70113 871.94362 0.00115
1777 9.48000 867.48179 867.81839 0.00115
1778 9.48500 867.56211 866.30773 0.00115
1779 9.49000 868.01473 865.25876 0.00116
1780 9.49500 868.84794 866.69222 0.00115
1781 9.50000 869.99697 863.73430 0.00116
1782 9.50500 871.34227 864.30656 0.00116
1783 9.51000 872.74639 869.23422 0.00115
1784 9.51500 874.07001 872.20351 0.00115
1785 9.52000 875.14385 870.19999 0.00115
1786 9.52500 875.73863 869.95388 0.00115
1787 9.53000 875.59932 870.76030 0.00115
1788 9.53500 874.55454 867.18690 0.00115
1789 9.54000 872.61807 865.48874 0.00116
1790 9.54500 869.99058 862.54538 0.00116
1791 9.55000 866.96545 860.31777 0.00116
1792 9.55500 863.82385 859.81443 0.00116
1793 9.56000 860.77903 858.41543 0.00116
1794 9.56500 857.96337 857.17632 0.00117
1795 9.57000 855.42850 854.59705 0.00117
1796 9.57500 853.15744 851.96948 0.00117
1797 9.58000 851.09582 852.25280 0.00117
1798 9.58500 849.19699 851.28915 0.00117
1799 9.59000 847.45170 843.34387 0.00119
1800 9.59500 845.88789 839.82787 0.00119
1801 9.60000 844.53044 841.42215 0.00119
1802 9.60500 843.37600 841.80698 0.00119
1803 9.61000 842.38122 841.17602 0.00119
1804 9.61500 841.47471 839.71932 0.00119
1805 9.62000 840.58414 839.11290 0.00119
1806 9.62500 839.66237 839.56019 0.00119
1807 9.63000 838.69543 835.72250 0.00120
1808 9.63500 837.69896 834.33905 0.00120
1809 9.64000 836.70194 832.28073 0.00120
1810 9.64500 835.74306 834.86098 0.00120
1811 9.65000 834.85778 833.02448 0.00120
1812 9.65500 834.07478 838.51165 0.00119
1813 9.66000 833.39971 838.95305 0.00119
1814 9.66500 832.82256 833.50582 0.00120
1815 9.67000 832.31905 831.34546 0.00120
1816 9.67500 831.86135 831.55110 0.00120
1817 9.68000 831.42779 830.60725 0.00120
1818 9.68500 831.00778 829.34324 0.00121
1819 9.69000 830.59930 830.57165 0.00120
1820 9.69500 830.20250 831.51294 0.00120
1821 9.70000 829.81467 832.45176 0.00120
1822 9.70500 829.42850 831.97309 0.00120
1823 9.71000 829.03016 828.68285 0.00121
1824 9.71500 828.59382 830.26232 0.00120
1825 9.72000 828.07754 828.30086 0.00121
1826 9.72500 827.43244 827.54159 0.00121
1827 9.73000 826.62779 829.30489 0.00121
1828 9.73500 825.67461 827.10773 0.00121
1829 9.74000 824.62420 824.64815 0.00121
1830 9.74500 823.54643 822.74132 0.00122
1831 9.75000 822.49731 822.03760 0.00122
1832 9.75500 821.50889 823.17744 0.00121
1833 9.76000 820.58891 822.51079 0.00122
1834 9.76500 819.72615 821.78048 0.00122
1835 9.77000 818.89480 825.25459 0.00121
1836 9.77500 818.06254 826.92893 0.00121
1837 9.78000 817.19721 823.55685 0.00121
1838 9.78500 816.28053 822.48199 0.00122
1839 9.79000 815.31376 823.37945 0.00121
1840 9.79500 814.31851 818.33969 0.00122
1841 9.80000 813.32681 814.34531 0.00123
1842 9.80500 812.37568 813.40585 0.00123
1843 9.81000 811.49843 811.72211 0.00123
1844 9.81500 810.71783 809.93426 0.00123
1845 9.82000 810.04315 806.14827 0.00124
1846 9.82500 809.47202 808.89338 0.00124
1847 9.83000 808.99601 811.80126 0.00123
1848 9.83500 808.60736 812.30313 0.00123
1849 9.84000 808.30241 810.50095 0.00123
1850 9.84500 808.07555 810.54471 0.00123
1851 9.85000 807.91815 814.51736 0.00123
1852 9.85500 807.79436 814.04631 0.00123
1853 9.86000 807.64362 812.84567 0.00123
1854 9.86500 807.38468 814.89137 0.00123
1855 9.87000 806.93580 811.71155 0.00123
1856 9.87500 806.24459 808.70503 0.00124
1857 9.88000 805.31905 808.47290 0.00124
1858 9.88500 804.21193 806.13501 0.00124
1859 9.89000 803.00446 806.08889 0.00124
1860 9.89500 801.77658 801.88695 0.00125
1861 9.90000 800.59080 799.26390 0.00125
1862 9.90500 799.48825 803.16578 0.00125
1863 9.91000 798.49184 800.62899 0.00125
1864 9.91500 797.61171 794.40945 0.00126
1865 9.92000 796.84969 793.05342 0.00126
1866 9.92500 796.20064 795.66364 0.00126
1867 9.93000 795.65337 797.81387 0.00125
1868 9.93500 795.18919 795.66614 0.00126
1869 9.94000 794.78707 797.24030 0.00125
1870 9.94500 794.43059 794.97892 0.00126
1871 9.95000 794.11374 793.34288 0.00126
1872 9.95500 793.84532 793.66184 0.00126
1873 9.96000 793.63893 788.10790 0.00127
1874 9.96500 793.50750 789.55778 0.00127
1875 9.97000 793.47311 795.46746 0.00126
1876 9.97500 793.55330 793.14885 0.00126
1877 9.98000 793.77384 791.47459 0.00126
1878 9.98500 794.15950 787.46843 0.00127
1879 9.99000 794.72086 788.93428 0.00127
1880 9.99500 795.43894 791.02567 0.00126
1881 10.00000 796.25266 788.74632 0.00127
1882 10.00500 797.05409 787.42535 0.00127
1883 10.01000 797.69404 792.99486 0.00126
1884 10.01500 798.02969 790.79188 0.00126
1885 10.02000 797.93971 791.58135 0.00126
1886 10.02500 797.38142 793.48802 0.00126
1887 10.03000 796.39827 790.17689 0.00127
1888 10.03500 795.10043 791.60471 0.00126
1889 10.04000 793.62255 791.63103 0.00126
1890 10.04500 792.08123 791.16936 0.00126
1891 10.05000 790.55011 788.78012 0.00127
1892 10.05500 789.05396 784.96708 0.00127
1893 10.06000 787.59637 783.20718 0.00128
1894 10.06500 786.15916 784.42324 0.00127
1895 10.07000 784.73058 783.39899 0.00128
1896 10.07500 783.30271 781.30169 0.00128
1897 10.08000 781.88170 777.33825 0.00129
1898 10.08500 780.47112 774.48462 0.00129
1899 10.09000 779.08836 774.28014 0.00129
1900 10.09500 777.76004 773.87957 0.00129
1901 10.10000 776.50964 769.95513 0.00130
1902 10.10500 775.33729 768.32466 0.00130
1903 10.11000 774.22084 768.18729 0.00130
1904 10.11500 773.09909 770.46312 0.00130
1905 10.12000 771.90234 767.75841 0.00130
1906 10.12500 770.57789 766.17836 0.00131
1907 10.13000 769.11772 766.62243 0.00130
1908 10.13500 767.55669 765.51175 0.00131
1909 10.14000 765.95409 762.04028 0.00131
1910 10.14500 764.37635 763.28617 0.00131
1911 10.15000 762.86836 764.16255 0.00131
1912 10.15500 761.45662 761.99020 0.00131
1913 10.16000 760.15080 763.46006 0.00131
1914 10.16500 758.94966 759.58497 0.00132
1915 10.17000 757.84641 758.51491 0.00132
1916 10.17500 756.83121 757.72332 0.00132
1917 10.18000 755.89053 753.26207 0.00133
1918 10.18500 755.01015 753.50205 0.00133
1919 10.19000 754.17369 755.99956 0.00132
1920 10.19500 753.36881 755.40407 0.00132
1921 10.20000 752.59416 754.42001 0.00133
1922 10.20500 751.85703 752.85196 0.00133
1923 10.21000 751.17535 752.09203 0.00133
1924 10.21500 750.57534 754.65221 0.00133
1925 10.22000 750.07992 753.79115 0.00133
1926 10.22500 749.70568 751.24842 0.00133
1927 10.23000 749.45891 753.00815 0.00133
1928 10.23500 749.33614 757.14058 0.00132
1929 10.24000 749.32653 755.45057 0.00132
1930 10.24500 749.41541 753.31443 0.00133
1931 10.25000 749.58644 757.23256 0.00132
1932 10.25500 749.82045 757.74523 0.00132
1933 10.26000 750.09029 755.19881 0.00132
1934 10.26500 750.35468 756.32190 0.00132
1935 10.27000 750.55862 761.20923 0.00131
1936 10.27500 750.64655 762.30646 0.00131
1937 10.28000 750.58477 758.70939 0.00132
1938 10.28500 750.37742 754.47765 0.00133
1939 10.29000 750.06021 753.17717 0.00133
1940 10.29500 749.67268 753.82351 0.00133
1941 10.30000 749.22602 756.60872 0.00132
1942 10.30500 748.69248 756.74043 0.00132
1943 10.31000 747.99875 752.51846 0.00133
1944 10.31500 747.04876 753.03104 0.00133
1945 10.32000 745.75219 755.84498 0.00132
1946 10.32500 744.06194 753.27775 0.00133
1947 10.33000 742.00201 748.31405 0.00134
1948 10.33500 739.66527 741.89502 0.00135
1949 10.34000 737.19334 738.02161 0.00135
1950 10.34500 734.72577 736.74278 0.00136
1951 10.35000 732.38103 734.28680 0.00136
1952 10.35500 730.24609 731.76718 0.00137
1953 10.36000 728.37683 726.89799 0.00138
1954 10.36500 726.80543 723.96076 0.00138
1955 10.37000 725.54266 729.81021 0.00137
1956 10.37500 724.57967 728.40900 0.00137
1957 10.38000 723.89185 720.52965 0.00139
1958 10.38500 723.42937 720.01870 0.00139
1959 10.39000 723.12618 720.77675 0.00139
1960 10.39500 722.90248 720.74657 0.00139
1961 10.40000 722.68162 723.23811 0.00138
1962 10.40500 722.40699 719.88690 0.00139
1963 10.41000 722.05046 717.24481 0.00139
1964 10.41500 721.60707 718.87210 0.00139
1965 10.42000 721.07902 718.31664 0.00139
1966 10.42500 720.46384 719.70820 0.00139
1967 10.43000 719.74691 717.71175 0.00139
1968 10.43500 718.90595 717.10118 0.00139
1969 10.44000 717.91816 717.27459 0.00139
1970 10.44500 716.77007 716.04836 0.00140
1971 10.45000 715.46802 712.00401 0.00140
1972 10.45500 714.03752 711.13574 0.00141
1973 10.46000 712.51995 708.56452 0.00141
1974 10.46500 710.96298 705.46247 0.00142
1975 10.47000 709.40971 703.45394 0.00142
1976 10.47500 707.88877 702.27325 0.00142
1977 10.48000 706.40760 701.50842 0.00143
1978 10.48500 704.95665 698.12067 0.00143
1979 10.49000 703.52156 695.29951 0.00144
1980 10.49500 702.09641 695.05088 0.00144
1981 10.50000 700.68940 695.53384 0.00144
1982 10.50500 699.31971 695.37628 0.00144
1983 10.51000 698.01095 696.47854 0.00144
1984 10.51500 696.78625 696.27320 0.00144
1985 10.52000 695.66548 692.08085 0.00144
1986 10.52500 694.66410 690.76022 0.00145
1987 10.53000 693.78908 693.21061 0.00144
1988 10.53500 693.03651 692.64300 0.00144
1989 10.54000 692.38696 689.59117 0.00145
1990 10.54500 691.80886 686.20010 0.00146
1991 10.55000 691.26516 683.37277 0.00146
1992 10.55500 690.72241 683.04672 0.00146
1993 10.56000 690.15675 685.76261 0.00146
1994 10.56500 689.55437 689.93408 0.00145
1995 10.57000 688.90837 687.87900 0.00145
1996 10.57500 688.21562 685.13085 0.00146
1997 10.58000 687.47321 686.75442 0.00146
1998 10.58500 686.67865 685.90397 0.00146
1999 10.59000 685.82967 687.16485 0.00146
2000 10.59500 684.92555 684.89956 0.00146
2001 10.60000 683.96029 682.97147 0.00146
2002 10.60500 682.92501 682.41210 0.00147
2003 10.61000 681.81351 680.48862 0.00147
2004 10.61500 680.63183 677.98462 0.00147
2005 10.62000 679.40304 675.29947 0.00148
2006 10.62500 678.16242 672.56087 0.00149
2007 10.63000 676.94554 674.44100 0.00148
2008 10.63500 675.77730 675.63588 0.00148
2009 10.64000 674.66786 674.10455 0.00148
2010 10.64500 673.61413 670.10486 0.00149
2011 10.65000 672.60418 671.60250 0.00149
2012 10.65500 671.62185 672.51012 0.00149
2013 10.66000 670.64756 668.97089 0.00149
2014 10.66500 669.66213 670.48853 0.00149
2015 10.67000 668.65127 672.92833 0.00149
2016 10.67500 667.61088 670.82797 0.00149
2017 10.68000 666.55016 667.55277 0.00150
2018 10.68500 665.48714 666.76127 0.00150
2019 10.69000 664.44203 665.68978 0.00150
2020 10.69500 663.43154 664.25754 0.00151
2021 10.70000 662.46667 664.73337 0.00150
2022 10.70500 661.55439 663.66617 0.00151
2023 10.71000 660.69949 660.82269 0.00151
2024 10.71500 659.90574 660.63217 0.00151
2025 10.72000 659.17633 664.39650 0.00151
2026 10.72500 658.51397 660.90821 0.00151
2027 10.73000 657.92014 657.97106 0.00152
2028 10.73500 657.39377 659.53418 0.00152
2029 10.74000 656.93080 661.38358 0.00151
2030 10.74500 656.52291 659.85868 0.00152
2031 10.75000 656.15920 658.61492 0.00152
2032 10.75500 655.82891 660.63302 0.00151
2033 10.76000 655.52528 659.49581 0.00152
2034 10.76500 655.24857 659.51365 0.00152
2035 10.77000 655.00614 659.84047 0.00152
2036 10.77500 654.80919 657.63695 0.00152
2037 10.78000 654.66929 660.70573 0.00151
2038 10.78500 654.59365 660.51564 0.00151
2039 10.79000 654.58441 660.97406 0.00151
2040 10.79500 654.63849 660.14925 0.00151
2041 10.80000 654.74847 658.04113 0.00152
2042 10.80500 654.90082 658.69602 0.00152
2043 10.81000 655.08684 659.49676 0.00152
2044 10.81500 655.28760 655.95923 0.00152
2045 10.82000 655.48645 659.62605 0.00152
2046 10.82500 655.67156 658.41879 0.00152
2047 10.83000 655.83953 655.88749 0.00152
2048 10.83500 655.99646 657.57913 0.00152
2049 10.84000 656.15266 658.23745 0.00152
2050 10.84500 656.31613 656.34434 0.00152
2051 10.85000 656.49026 657.18253 0.00152
2052 10.85500 656.67616 656.79932 0.00152
2053 10.86000 656.88279 654.98878 0.00153
2054 10.86500 657.11960 656.58709 0.00152
2055 10.87000 657.39432 659.25602 0.00152
2056 10.87500 657.70314 661.32067 0.00151
2057 10.88000 658.02454 658.41066 0.00152
2058 10.88500 658.32140 657.27227 0.00152
2059 10.89000 658.55183 656.73366 0.00152
2060 10.89500 658.67738 656.77598 0.00152
2061 10.90000 658.66964 656.93864 0.00152
2062 10.90500 658.52181 658.87226 0.00152
2063 10.91000 658.23019 656.02778 0.00152
2064 10.91500 657.80282 654.62513 0.00153
2065 10.92000 657.25628 656.77818 0.00152
2066 10.92500 656.61538 654.89385 0.00153
2067 10.93000 655.91118 651.62689 0.00153
2068 10.93500 655.17694 653.26246 0.00153
2069 10.94000 654.44273 653.54925 0.00153
2070 10.94500 653.72904 655.61718 0.00153
2071 10.95000 653.05052 655.24003 0.00153
2072 10.95500 652.40728 656.45072 0.00152
2073 10.96000 651.79458 655.55417 0.00153
2074 10.96500 651.20594 654.91803 0.00153
2075 10.97000 650.63708 652.09961 0.00153
2076 10.97500 650.08780 654.43296 0.00153
2077 10.98000 649.56238 652.63813 0.00153
2078 10.98500 649.06910 648.06243 0.00154
2079 10.99000 648.61886 645.58057 0.00155
2080 10.99500 648.22246 647.59315 0.00154
2081 11.00000 647.88744 649.41821 0.00154
2082 11.00500 647.61546 646.08366 0.00155
2083 11.01000 647.40112 645.30125 0.00155
2084 11.01500 647.23165 647.71181 0.00154
2085 11.02000 647.08691 647.49123 0.00154
2086 11.02500 646.95015 643.23449 0.00155
2087 11.03000 646.80304 642.43517 0.00156
2088 11.03500 646.64101 644.72149 0.00155
2089 11.04000 646.46602 642.74800 0.00156
2090 11.04500 646.29004 644.75701 0.00155
2091 11.05000 646.12854 646.27810 0.00155
2092 11.05500 645.99552 641.65291 0.00156
2093 11.06000 645.90014 643.40760 0.00155
2094 11.06500 645.84781 647.48232 0.00154
2095 11.07000 645.83710 646.99181 0.00155
2096 11.07500 645.86324 645.21758 0.00155
2097 11.08000 645.91784 643.32518 0.00155
2098 11.08500 645.99723 643.87328 0.00155
2099 11.09000 646.09395 642.96440 0.00156
2100 11.09500 646.20191 641.48234 0.00156
2101 11.10000 646.31482 639.79330 0.00156
2102 11.10500 646.42657 642.96359 0.00156
2103 11.11000 646.53573 643.45405 0.00155
2104 11.11500 646.64560 642.99167 0.00156
2105 11.12000 646.76632 645.49276 0.00155
2106 11.12500 646.91063 644.48769 0.00155
2107 11.13000 647.09809 646.65091 0.00155
2108 11.13500 647.34346 651.05376 0.00154
2109 11.14000 647.66305 650.66071 0.00154
2110 11.14500 648.07573 650.93709 0.00154
2111 11.15000 648.59992 649.27913 0.00154
2112 11.15500 649.25247 651.03885 0.00154
2113 11.16000 650.04802 651.11032 0.00154
2114 11.16500 650.99729 652.02842 0.00153
2115 11.17000 652.10549 653.25203 0.00153
2116 11.17500 653.36872 654.05069 0.00153
2117 11.18000 654.77329 659.43803 0.00152
2118 11.18500 656.28774 661.29407 0.00151
2119 11.19000 657.86201 658.70939 0.00152
2120 11.19500 659.43117 659.57987 0.00152
2121 11.20000 660.92128 660.54916 0.00151
2122 11.20500 662.25725 663.27852 0.00151
2123 11.21000 663.37453 665.32813 0.00150
2124 11.21500 664.22677 666.98131 0.00150
2125 11.22000 664.79474 665.43740 0.00150
2126 11.22500 665.08642 663.86051 0.00151
2127 11.23000 665.12223 665.07786 0.00150
2128 11.23500 664.92292 666.80746 0.00150
2129 11.24000 664.50442 661.90625 0.00151
2130 11.24500 663.87986 661.22452 0.00151
2131 11.25000 663.06994 661.49060 0.00151
2132 11.25500 662.10489 657.37412 0.00152
2133 11.26000 661.02193 655.48144 0.00153
2134 11.26500 659.85807 655.36437 0.00153
2135 11.27000 658.64290 654.74265 0.00153
2136 11.27500 657.39727 650.37095 0.00154
2137 11.28000 656.13797 650.67974 0.00154
2138 11.28500 654.88446 651.74916 0.00153
2139 11.29000 653.66633 648.64290 0.00154
2140 11.29500 652.51465 648.78491 0.00154
2141 11.30000 651.45686 649.94933 0.00154
2142 11.30500 650.50855 648.74338 0.00154
2143 11.31000 649.67059 648.45434 0.00154
2144 11.31500 648.93382 648.76558 0.00154
2145 11.32000 648.28580 649.19279 0.00154
2146 11.32500 647.71633 649.03078 0.00154
2147 11.33000 647.21553 645.97181 0.00155
2148 11.33500 646.77026 646.44264 0.00155
2149 11.34000 646.35909 645.14713 0.00155
2150 11.34500 645.95272 645.00846 0.00155
2151 11.35000 645.52071 644.11565 0.00155
2152 11.35500 645.03416 644.24922 0.00155
2153 11.36000 644.47115 646.71762 0.00155
2154 11.36500 643.81745 646.93147 0.00155
2155 11.37000 643.06824 646.35687 0.00155
2156 11.37500 642.23065 644.12753 0.00155
2157 11.38000 641.32584 641.17778 0.00156
2158 11.38500 640.38566 639.43623 0.00156
2159 11.39000 639.44664 636.15419 0.00157
2160 11.39500 638.54186 637.21922 0.00157
2161 11.40000 637.69435 637.91288 0.00157
2162 11.40500 636.91427 637.11199 0.00157
2163 11.41000 636.19880 638.13560 0.00157
2164 11.41500 635.53544 637.02270 0.00157
2165 11.42000 634.90818 633.75288 0.00158
2166 11.42500 634.30137 630.52027 0.00159
2167 11.43000 633.70445 632.45997 0.00158
2168 11.43500 633.11280 633.17907 0.00158
2169 11.44000 632.52617 632.28293 0.00158
2170 11.44500 631.94603 632.36313 0.00158
2171 11.45000 631.37344 633.60073 0.00158
2172 11.45500 630.81069 631.34989 0.00158
2173 11.46000 630.25867 630.43816 0.00159
2174 11.46500 629.71945 633.52002 0.00158
2175 11.47000 629.19594 634.43014 0.00158
2176 11.47500 628.69161 634.86640 0.00158
2177 11.48000 628.21033 632.29648 0.00158
2178 11.48500 627.75614 630.98033 0.00158
2179 11.49000 627.33339 631.59382 0.00158
2180 11.49500 626.94665 633.61999 0.00158
2181 11.50000 626.60117 631.93901 0.00158
2182 11.50500 626.30190 631.05227 0.00158
2183 11.51000 626.05349 631.75014 0.00158
2184 11.51500 625.85963 628.84030 0.00159
2185 11.52000 625.72298 631.09385 0.00158
2186 11.52500 625.64469 631.41641 0.00158
2187 11.53000 625.62470 629.14486 0.00159
2188 11.53500 625.66217 629.19746 0.00159
2189 11.54000 625.75617 629.89412 0.00159
2190 11.54500 625.90639 628.00627 0.00159
2191 11.55000 626.11324 629.38040 0.00159
2192 11.55500 626.37728 627.19524 0.00159
2193 11.56000 626.69842 628.30036 0.00159
2194 11.56500 627.07544 632.34324 0.00158
2195 11.57000 627.50571 631.56176 0.00158
2196 11.57500 627.98500 629.57712 0.00159
2197 11.58000 628.50654 628.85225 0.00159
2198 11.58500 629.06003 628.24967 0.00159
2199 11.59000 629.63142 628.51698 0.00159
2200 11.59500 630.20437 627.22188 0.00159
2201 11.60000 630.76310 629.60005 0.00159
2202 11.60500 631.29398 630.94950 0.00158
2203 11.61000 631.78642 632.70741 0.00158
2204 11.61500 632.23331 634.05848 0.00158
2205 11.62000 632.63199 632.96564 0.00158
2206 11.62500 632.98488 632.93978 0.00158
2207 11.63000 633.29751 631.73324 0.00158
2208 11.63500 633.57403 632.35812 0.00158
2209 11.64000 633.81156 632.25131 0.00158
2210 11.64500 634.00111 632.90555 0.00158
2211 11.65000 634.12211 632.00058 0.00158
2212 11.65500 634.15160 629.97000 0.00159
2213 11.66000 634.07284 628.58007 0.00159
2214 11.66500 633.88211 624.18948 0.00160
2215 11.67000 633.59271 624.69790 0.00160
2216 11.67500 633.23236 627.78875 0.00159
2217 11.68000 632.83237 629.73855 0.00159
2218 11.68500 632.42389 630.53009 0.00159
2219 11.69000 632.02509 632.31716 0.00158
2220 11.69500 631.64316 628.18416 0.00159
2221 11.70000 631.27554 628.30076 0.00159
2222 11.70500 630.91608 629.52688 0.00159
2223 11.71000 630.56123 627.05144 0.00159
2224 11.71500 630.21426 629.34745 0.00159
2225 11.72000 629.88298 627.77811 0.00159
2226 11.72500 629.57601 628.97911 0.00159
2227 11.73000 629.29672 631.17326 0.00158
2228 11.73500 629.04233 626.30308 0.00160
2229 11.74000 628.80621 626.75714 0.00160
2230 11.74500 628.58154 626.11372 0.00160
2231 11.75000 628.36888 623.43284 0.00160
2232 11.75500 628.16963 623.09376 0.00160
2233 11.76000 627.98607 625.00775 0.00160
2234 11.76500 627.81714 623.63079 0.00160
2235 11.77000 627.65506 623.71711 0.00160
2236 11.77500 627.48834 626.60040 0.00160
2237 11.78000 627.30606 626.98271 0.00159
2238 11.78500 627.10234 628.34679 0.00159
2239 11.79000 626.87721 625.72062 0.00160
2240 11.79500 626.63778 624.05245 0.00160
2241 11.80000 626.39171 623.23069 0.00160
2242 11.80500 626.14233 623.67380 0.00160
2243 11.81000 625.88843 624.97996 0.00160
2244 11.81500 625.62906 623.09431 0.00160
2245 11.82000 625.35900 625.35268 0.00160
2246 11.82500 625.07543 625.49520 0.00160
2247 11.83000 624.77722 624.14259 0.00160
2248 11.83500 624.46484 626.67206 0.00160
2249 11.84000 624.13855 628.68383 0.00159
2250 11.84500 623.79896 630.49606 0.00159
2251 11.85000 623.44775 629.40040 0.00159
2252 11.85500 623.08797 628.44763 0.00159
2253 11.86000 622.72569 624.46181 0.00160
2254 11.86500 622.36626 622.99060 0.00161
2255 11.87000 622.01500 624.97386 0.00160
2256 11.87500 621.67826 627.83158 0.00159
2257 11.88000 621.36069 624.76247 0.00160
2258 11.88500 621.06710 621.73272 0.00161
2259 11.89000 620.80208 620.92566 0.00161
2260 11.89500 620.56929 623.08299 0.00160
2261 11.90000 620.37426 621.30616 0.00161
2262 11.90500 620.22016 622.36926 0.00161
2263 11.91000 620.11034 620.15806 0.00161
2264 11.91500 620.04730 619.35941 0.00161
2265 11.92000 620.03276 620.17559 0.00161
2266 11.92500 620.06745 620.95356 0.00161
2267 11.93000 620.15391 623.14883 0.00160
2268 11.93500 620.29356 625.10171 0.00160
2269 11.94000 620.48971 623.85435 0.00160
2270 11.94500 620.74800 626.28050 0.00160
2271 11.95000 621.07106 624.14525 0.00160
2272 11.95500 621.46099 622.84785 0.00161
2273 11.96000 621.91660 625.32130 0.00160
2274 11.96500 622.43283 621.79681 0.00161
2275 11.97000 623.00020 622.35618 0.00161
2276 11.97500 623.60514 624.05992 0.00160
2277 11.98000 624.23092 623.16570 0.00160
2278 11.98500 624.86150 625.18321 0.00160
2279 11.99000 625.48292 623.10700 0.00160
2280 11.99500 626.08756 626.57294 0.00160
2281 12.00000 626.67464 628.01799 0.00159
2282 12.00500 627.25357 626.03529 0.00160
2283 12.01000 627.83655 626.48740 0.00160
2284 12.01500 628.43747 626.53127 0.00160
2285 12.02000 629.06512 627.45146 0.00159
2286 12.02500 629.72101 626.15514 0.00160
2287 12.03000 630.39384 627.74257 0.00159
2288 12.03500 631.06334 632.34449 0.00158
2289 12.04000 631.70306 629.90750 0.00159
2290 12.04500 632.28364 630.22506 0.00159
2291 12.05000 632.77486 630.14028 0.00159
2292 12.05500 633.14789 629.44597 0.00159
2293 12.06000 633.37940 633.60365 0.00158
2294 12.06500 633.45883 637.55453 0.00157
2295 12.07000 633.39471 633.48074 0.00158
2296 12.07500 633.21568 629.83822 0.00159
2297 12.08000 632.96612 630.38143 0.00159
2298 12.08500 632.69462 632.19503 0.00158
2299 12.09000 632.44635 630.63329 0.00159
2300 12.09500 632.25707 630.61213 0.00159
2301 12.10000 632.15084 629.27565 0.00159
2302 12.10500 632.13947 628.00931 0.00159
2303 12.11000 632.22421 630.70831 0.00159
2304 12.11500 632.39341 634.73734 0.00158
2305 12.12000 632.62547 635.29500 0.00157
2306 12.12500 632.89017 633.76264 0.00158
2307 12.13000 633.15302 634.35036 0.00158
2308 12.13500 633.37793 634.85102 0.00158
2309 12.14000 633.53168 636.29992 0.00157
2310 12.14500 633.58601 637.50472 0.00157
2311 12.15000 633.51861 637.40479 0.00157
2312 12.15500 633.31346 631.40045 0.00158
2313 12.16000 632.96087 629.81438 0.00159
2314 12.16500 632.45737 629.92118 0.00159
2315 12.17000 631.80528 631.45703 0.00158
2316 12.17500 631.01131 629.92591 0.00159
2317 12.18000 630.08600 629.78645 0.00159
2318 12.18500 629.04408 626.47925 0.00160
2319 12.19000 627.90493 624.57504 0.00160
2320 12.19500 626.69375 625.63883 0.00160
2321 12.20000 625.43774 623.94069 0.00160
2322 12.20500 624.16463 622.31246 0.00161
2323 12.21000 622.90007 624.93121 0.00160
2324 12.21500 621.66671 625.81829 0.00160
2325 12.22000 620.48513 623.49036 0.00160
2326 12.22500 619.37646 622.88669 0.00161
2327 12.23000 618.36372 620.50267 0.00161
2328 12.23500 617.47271 618.40809 0.00162
2329 12.24000 616.73112 618.48550 0.00162
2330 12.24500 616.16695 617.91469 0.00162
2331 12.25000 615.80740 613.56758 0.00163
2332 12.25500 615.68061 614.99338 0.00163
2333 12.26000 615.81748 618.74212 0.00162
2334 12.26500 616.25393 616.96017 0.00162
2335 12.27000 617.03205 615.37776 0.00163
2336 12.27500 618.20236 617.06722 0.00162
2337 12.28000 619.82160 616.22532 0.00162

#==============================================================================
# Reflections Data Block
#==============================================================================
_reflns_number_total             
1789 #Can find this by looking at line numbers in table below
_reflns_limit_h_min              0 #All of these - see table below
_reflns_limit_h_max              18
_reflns_limit_k_min              -15
_reflns_limit_k_max              0
_reflns_limit_l_min              -25
_reflns_limit_l_max              25
_reflns_d_resolution_high        
0.9318 #Look in column 4 below - smallest value
_reflns_d_resolution_low         ?

loop_
_refln_index_h
_refln_index_k
_refln_index_l
_refln_d_spacing
_refln_F_squared_calc
_refln_F_squared_meas
_refln_F_squared_sigma
_refln_observed_status
0 0 3 8.05785 8999.29 8811.26 18.94 o
0 0 6 4.02892 73494.97 73204.86 132.62 o
0 0 9 2.68595 127.22 127.30 0.37 o
0 0 12 2.01446 6302.50 6238.62 23.17 o
0 0 15 1.61157 626.57 627.36 2.75 o
0 0 18 1.34297 14083.78 14106.38 61.19 o
0 0 21 1.15112 14636.12 14692.93 75.63 o
0 0 24 1.00723 631.05 630.98 3.54 o
1 0 -23 1.04842 535.65 535.45 3.04 o
1 0 -20 1.20472 17369.20 17414.18 83.73 o
1 0 -17 1.41553 3363.04 3330.39 13.72 o
1 0 -14 1.71519 1030.61 1017.93 4.22 o
1 0 -11 2.17405 2746.06 2710.78 9.69 o
1 0 -8 2.96134 11.68 11.69 0.03 o
1 0 -5 4.59844 56071.15 56248.43 129.14 o
1 0 -2 9.38466 44520.01 43766.93 134.04 o
1 0 1 12.67903 325165.26 325367.04 636.50 o
1 0 4 5.59983 76.78 78.39 0.17 o
1 0 7 3.36409 2097.20 2105.45 4.91 o
1 0 10 2.38612 15219.47 15213.65 47.83 o
1 0 13 1.84517 68.40 68.74 0.29 o
1 0 16 1.50313 1767.55 1765.31 7.43 o
1 0 19 1.26767 21225.20 21327.47 95.99 o
1 0 22 1.09582 2922.57 2926.19 16.53 o
1 0 25 0.96491 571.95 571.81 2.42 o
2 -1 -24 1.00039 989.06 991.32 5.64 o
2 -1 -21 1.14094 1710.13 1706.07 8.97 o
2 -1 -18 1.32689 8917.48 8884.17 38.78 o
2 -1 -15 1.58398 511.55 513.17 2.20 o
2 -1 -12 1.96135 596.28 593.39 2.39 o
2 -1 -9 2.56376 30370.84 30323.59 92.17 o
2 -1 -6 3.64823 1763.81 1763.91 3.80 o
2 -1 -3 5.87938 10513.95 10746.50 31.53 o
2 -1 0 8.59778 26191.85 26201.87 67.44 o
2 -1 3 5.87938 89886.50 91874.58 269.59 o
2 -1 6 3.64823 6896.32 6896.70 14.84 o
2 -1 9 2.56376 2717.70 2713.48 8.25 o
2 -1 12 1.96135 7275.86 7240.58 29.14 o
2 -1 15 1.58398 668.13 670.23 2.88 o
2 -1 18 1.32689 3349.08 3336.57 14.56 o
2 -1 21 1.14094 6307.26 6292.30 33.08 o
2 -1 24 1.00039 118.10 118.37 0.67 o
2 0 -25 0.95889 469.31 469.31 1.73 o
2 0 -22 1.08702 469.65 469.78 2.67 o
2 0 -19 1.25412 2301.69 2302.63 10.39 o
2 0 -16 1.48067 1486.98 1484.97 6.35 o
2 0 -13 1.80410 6269.01 6406.43 27.06 o
2 0 -10 2.29922 6677.23 6621.04 22.48 o
2 0 -7 3.13282 370.08 374.09 0.92 o
2 0 -4 4.69233 13959.10 13844.04 28.48 o
2 0 -1 7.11598 21882.68 22312.95 49.73 o
2 0 2 6.33951 150495.66 146998.88 513.79 o
2 0 5 4.05491 89315.70 88733.90 194.35 o
2 0 8 2.79992 4061.72 4032.07 11.24 o
2 0 11 2.10771 16203.65 16933.09 59.68 o
2 0 14 1.68205 545.65 543.63 2.39 o
2 0 17 1.39673 5220.44 5232.85 22.36 o
2 0 20 1.19306 4365.04 4354.78 21.15 o
2 0 23 1.04071 2293.89 2296.54 13.17 o
3 -2 -25 0.95298 1203.80 1203.80 4.16 o
3 -2 -22 1.07844 1399.01 1396.87 8.00 o
3 -2 -19 1.24098 468.50 467.55 2.15 o
3 -2 -16 1.45919 191.46 191.65 0.82 o
3 -2 -13 1.76564 1120.46 1124.43 4.87 o
3 -2 -10 2.22117 462.75 455.70 1.61 o
3 -2 -7 2.94350 20248.89 20047.07 54.66 o
3 -2 -4 4.11885 83999.68 84598.46 175.06 o
3 -2 -1 5.48193 856.43 863.92 2.51 o
3 -2 2 5.10244 4124.91 4065.63 8.85 o
3 -2 5 3.66749 1044.61 1039.32 2.21 o
3 -2 8 2.66230 4333.24 4310.16 12.39 o
3 -2 11 2.04710 513.94 520.40 1.70 o
3 -2 14 1.65075 11216.73 11206.07 49.20 o
3 -2 17 1.37866 342.16 344.54 1.51 o
3 -2 20 1.18174 685.08 682.57 3.36 o
3 -2 23 1.03317 0.94 0.94 0.01 o
3 -1 -23 1.03317 893.10 896.92 5.14 o
3 -1 -20 1.18174 632.16 629.85 3.10 o
3 -1 -17 1.37866 1352.81 1362.24 5.98 o
3 -1 -14 1.65075 8545.53 8537.41 37.48 o
3 -1 -11 2.04710 2614.32 2647.16 8.66 o
3 -1 -8 2.66230 1125.29 1119.29 3.22 o
3 -1 -5 3.66749 482.59 480.14 1.02 o
3 -1 -2 5.10244 16948.68 16705.12 36.35 o
3 -1 1 5.48193 77451.11 78128.68 227.19 o
3 -1 4 4.11885 33518.73 33757.67 69.85 o
3 -1 7 2.94350 4994.98 4945.19 13.48 o
3 -1 10 2.22117 3681.11 3625.07 12.84 o
3 -1 13 1.76564 11515.09 11555.88 50.01 o
3 -1 16 1.45919 3079.92 3082.89 13.11 o
3 -1 19 1.24098 878.24 876.47 4.03 o
3 -1 22 1.07844 3982.42 3976.33 22.77 o
3 -1 25 0.95298 2277.84 2277.85 7.86 o
3 0 -24 0.98711 37.46 37.42 0.20 o
3 0 -21 1.12136 409.55 408.80 2.26 o
3 0 -18 1.29637 5.14 5.11 0.02 o
3 0 -15 1.53281 8831.62 8924.86 37.14 o
3 0 -12 1.86661 17587.77 17614.25 72.99 o
3 0 -9 2.36230 14844.86 14839.92 47.49 o
3 0 -6 3.12822 2156.32 2181.44 5.34 o
3 0 -3 4.22634 59787.39 59565.29 199.92 o
3 0 0 4.96393 25365.12 24788.06 55.54 o
3 0 3 4.22634 161150.82 160552.18 538.85 o
3 0 6 3.12822 8971.12 9075.65 22.21 o
3 0 9 2.36230 3600.65 3599.45 11.52 o
3 0 12 1.86661 84.15 84.28 0.35 o
3 0 15 1.53281 2367.47 2392.46 9.95 o
3 0 18 1.29637 1534.56 1526.94 6.92 o
3 0 21 1.12136 2788.35 2783.21 15.36 o
3 0 24 0.98711 1425.46 1423.80 7.65 o
4 -3 -23 1.01856 1603.49 1598.05 9.09 o
4 -3 -20 1.16003 144.98 145.79 0.74 o
4 -3 -17 1.34452 2588.64 2595.26 11.27 o
4 -3 -14 1.59307 469.65 471.68 2.06 o
4 -3 -11 1.94007 413.03 409.68 1.68 o
4 -3 -8 2.43872 7747.77 7927.12 25.08 o
4 -3 -5 3.14034 145.29 146.46 0.36 o
4 -3 -2 3.90835 26541.08 26692.00 57.02 o
4 -3 1 4.07124 5.53 5.48 0.01 o
4 -3 4 3.40995 4758.71 4789.58 10.94 o
4 -3 7 2.64932 9973.23 9833.89 29.89 o
4 -3 10 2.08629 9256.85 9600.62 32.50 o
4 -3 13 1.69558 14009.88 13846.62 57.50 o
4 -3 16 1.41889 2168.96 2146.63 8.84 o
4 -3 19 1.21591 1833.77 1839.34 8.76 o
4 -3 22 1.06186 379.82 379.92 2.12 o
4 -3 25 0.94149 166.47 166.47 0.54 o
4 -2 -24 0.98067 1400.91 1400.90 7.33 o
4 -2 -21 1.11195 921.43 923.12 5.19 o
4 -2 -18 1.28188 1297.06 1300.34 5.92 o
4 -2 -15 1.50902 4632.81 4619.25 19.37 o
4 -2 -12 1.82412 2949.18 3000.14 12.21 o
4 -2 -9 2.27788 7899.30 7842.29 26.64 o
4 -2 -6 2.93969 4319.25 4277.54 11.46 o
4 -2 -3 3.79287 1.79 1.80 0.00 o
4 -2 0 4.29889 25.31 25.59 0.06 o
4 -2 3 3.79287 5785.33 5824.12 12.38 o
4 -2 6 2.93969 1384.03 1370.67 3.67 o
4 -2 9 2.27788 0.56 0.55 0.00 o
4 -2 12 1.82412 1384.31 1408.23 5.73 o
4 -2 15 1.50902 890.27 887.66 3.72 o
4 -2 18 1.28188 743.78 745.66 3.39 o
4 -2 21 1.11195 2014.45 2018.16 11.35 o
4 -2 24 0.98067 3395.32 3395.30 17.76 o
4 -1 -25 0.94149 816.75 816.77 2.63 o
4 -1 -22 1.06186 629.06 629.22 3.51 o
4 -1 -19 1.21591 1036.41 1039.55 4.95 o
4 -1 -16 1.41889 10023.85 9920.64 40.84 o
4 -1 -13 1.69558 925.15 914.37 3.80 o
4 -1 -10 2.08629 18238.47 18915.79 64.03 o
4 -1 -7 2.64932 16725.75 16492.07 50.14 o
4 -1 -4 3.40995 16036.04 16140.07 36.86 o
4 -1 -1 4.07124 33478.04 33165.33 58.35 o
4 -1 2 3.90835 15400.99 15488.57 33.09 o
4 -1 5 3.14034 20134.50 20296.30 50.39 o
4 -1 8 2.43872 162.15 165.90 0.52 o
4 -1 11 1.94007 2630.85 2609.54 10.70 o
4 -1 14 1.59307 447.02 448.95 1.96 o
4 -1 17 1.34452 355.02 355.93 1.55 o
4 -1 20 1.16003 4167.65 4190.86 21.38 o
4 -1 23 1.01856 1184.49 1180.47 6.71 o
4 0 -23 1.01149 670.72 669.16 3.76 o
4 0 -20 1.14961 1305.28 1308.76 6.76 o
4 0 -17 1.32838 12914.95 12873.14 56.11 o
4 0 -14 1.56641 12272.49 12267.57 51.05 o
4 0 -11 1.89249 43540.46 42871.33 166.72 o
4 0 -8 2.34617 201.38 200.94 0.67 o
4 0 -5 2.94974 3657.76 3628.72 9.47 o
4 0 -2 3.55799 3639.32 3645.19 8.12 o
4 0 1 3.67957 25529.04 25293.53 55.95 o
4 0 4 3.16976 292.91 293.88 0.73 o
4 0 7 2.53184 27191.45 26839.75 104.96 o
4 0 10 2.02745 16548.29 16574.66 61.13 o
4 0 13 1.66354 101.67 101.85 0.45 o
4 0 16 1.39996 579.75 580.28 2.46 o
4 0 19 1.20393 3969.97 3979.23 19.15 o
4 0 22 1.05386 1193.84 1190.69 6.69 o
4 0 25 0.93589 1533.90 1533.95 4.84 o
5 -4 -24 0.96208 2280.49 2280.29 8.86 o
5 -4 -21 1.08506 606.69 607.07 3.46 o
5 -4 -18 1.24116 3439.65 3432.65 15.78 o
5 -4 -15 1.44378 661.03 660.56 2.73 o
5 -4 -12 1.71217 2817.31 2779.34 11.44 o
5 -4 -9 2.07031 82424.63 85575.35 270.06 o
5 -4 -6 2.52941 25448.27 25095.22 101.47 o
5 -4 -3 3.01380 22539.29 22634.41 61.11 o
5 -4 0 3.24966 12635.98 12527.49 30.44 o
5 -4 3 3.01380 11759.99 11809.62 31.89 o
5 -4 6 2.52941 3169.01 3125.04 12.64 o
5 -4 9 2.07031 2619.14 2719.25 8.58 o
5 -4 12 1.71217 34436.89 33972.77 139.88 o
5 -4 15 1.44378 13993.97 13983.97 57.72 o
5 -4 18 1.24116 5501.94 5490.73 25.24 o
5 -4 21 1.08506 318.37 318.57 1.82 o
5 -4 24 0.96208 1509.94 1509.80 5.87 o
5 -3 -22 1.04603 3658.07 3658.58 20.88 o
5 -3 -19 1.19230 90.83 90.58 0.44 o
5 -3 -16 1.38176 1541.94 1552.16 6.79 o
5 -3 -13 1.63325 26.79 26.78 0.12 o
5 -3 -10 1.97333 155.02 153.53 0.61 o
5 -3 -7 2.42873 9381.52 9584.24 29.06 o
5 -3 -4 2.97408 14637.09 14744.49 37.25 o
5 -3 -1 3.38280 2561.60 2581.05 5.95 o
5 -3 2 3.28760 10741.73 10661.44 25.38 o
5 -3 5 2.79010 251.57 250.14 0.71 o
5 -3 8 2.26341 1852.14 1824.78 6.35 o
5 -3 11 1.84824 4039.49 4060.20 17.37 o
5 -3 14 1.54104 8324.86 8373.24 34.05 o
5 -3 17 1.31280 918.96 914.24 4.05 o
5 -3 20 1.13947 3.98 3.96 0.02 o
5 -3 23 1.00456 4295.65 4303.50 24.25 o
5 -2 -23 1.00456 3279.60 3285.60 18.51 o
5 -2 -20 1.13947 1061.97 1058.89 5.58 o
5 -2 -17 1.31280 148.47 147.71 0.65 o
5 -2 -14 1.54104 4041.58 4065.07 16.53 o
5 -2 -11 1.84824 1360.38 1367.36 5.85 o
5 -2 -8 2.26341 11868.82 11693.50 40.67 o
5 -2 -5 2.79010 11778.70 11711.91 33.05 o
5 -2 -2 3.28760 297.98 295.76 0.70 o
5 -2 1 3.38280 0.44 0.44 0.00 o
5 -2 4 2.97408 6218.13 6263.75 15.83 o
5 -2 7 2.42873 12226.50 12490.70 37.87 o
5 -2 10 1.97333 5402.84 5350.82 21.31 o
5 -2 13 1.63325 2640.38 2640.17 11.73 o
5 -2 16 1.38176 1537.55 1547.74 6.77 o
5 -2 19 1.19230 2233.49 2227.33 10.82 o
5 -2 22 1.04603 1281.55 1281.73 7.31 o
5 -1 -24 0.96208 1292.67 1292.55 5.02 o
5 -1 -21 1.08506 2249.81 2251.18 12.83 o
5 -1 -18 1.24116 4389.57 4380.63 20.14 o
5 -1 -15 1.44378 11610.70 11602.41 47.89 o
5 -1 -12 1.71217 23646.34 23327.64 96.05 o
5 -1 -9 2.07031 3935.79 4086.24 12.90 o
5 -1 -6 2.52941 3190.87 3146.60 12.72 o
5 -1 -3 3.01380 3208.96 3222.50 8.70 o
5 -1 0 3.24966 32.08 31.80 0.08 o
5 -1 3 3.01380 7903.31 7936.66 21.43 o
5 -1 6 2.52941 48562.22 47888.51 193.63 o
5 -1 9 2.07031 21671.29 22499.69 71.00 o
5 -1 12 1.71217 78.85 77.79 0.32 o
5 -1 15 1.44378 335.67 335.43 1.38 o
5 -1 18 1.24116 3017.30 3011.15 13.84 o
5 -1 21 1.08506 1056.74 1057.39 6.03 o
5 -1 24 0.96208 500.01 499.97 1.94 o
5 0 -22 1.03088 2132.37 2139.75 12.26 o
5 0 -19 1.17001 598.69 598.70 3.03 o
5 0 -16 1.34740 25961.70 26091.44 113.42 o
5 0 -13 1.57732 31521.29 31648.00 134.32 o
5 0 -10 1.87693 25681.20 25419.63 102.68 o
5 0 -7 2.25541 65.55 64.44 0.22 o
5 0 -4 2.67154 54.02 54.00 0.16 o
5 0 -1 2.95601 1219.33 1215.21 3.08 o
5 0 2 2.89186 13376.31 13376.89 35.61 o
5 0 5 2.53581 7662.87 7586.10 23.53 o
5 0 8 2.12117 165717.14 172228.86 649.36 o
5 0 11 1.76833 2.76 2.77 0.01 o
5 0 14 1.49380 2611.22 2612.03 11.17 o
5 0 17 1.28322 825.48 827.19 3.76 o
5 0 20 1.11997 0.12 0.12 0.00 o
5 0 23 0.99112 995.74 995.22 5.45 o
6 -5 -22 1.01637 1016.27 1013.21 5.74 o
6 -5 -19 1.14893 720.36 721.88 3.74 o
6 -5 -16 1.31548 2668.66 2655.19 11.72 o
6 -5 -13 1.52678 572.32 577.83 2.43 o
6 -5 -10 1.79341 6630.31 6783.78 29.42 o
6 -5 -7 2.11459 48429.41 51274.68 165.94 o
6 -5 -4 2.44582 41359.31 42378.03 128.93 o
6 -5 -1 2.65842 836.63 829.39 2.39 o
6 -5 2 2.61147 7428.10 7387.60 22.04 o
6 -5 5 2.34038 2122.78 2114.69 6.97 o
6 -5 8 2.00277 2849.09 2814.75 10.41 o
6 -5 11 1.69796 28899.80 28508.28 118.03 o
6 -5 14 1.45065 21097.13 21138.21 88.10 o
6 -5 17 1.25556 10678.01 10694.27 48.26 o
6 -5 20 1.10143 8.54 8.57 0.05 o
6 -5 23 0.97821 2291.49 2291.19 11.74 o
6 -4 -23 0.98460 3878.08 3874.40 20.71 o
6 -4 -20 1.11058 55.00 55.13 0.31 o
6 -4 -17 1.26916 1340.26 1347.67 6.07 o
6 -4 -14 1.47175 1195.06 1196.04 5.13 o
6 -4 -11 1.73208 1405.56 1398.61 6.16 o
6 -4 -8 2.05942 35479.07 36136.83 137.59 o
6 -4 -5 2.43222 12596.05 12874.82 40.47 o
6 -4 -2 2.74097 9596.57 9486.90 27.46 o
6 -4 1 2.79540 2311.77 2295.48 6.50 o
6 -4 4 2.55122 239.17 238.49 0.73 o
6 -4 7 2.18160 197.25 194.18 0.69 o
6 -4 10 1.83375 6411.39 6445.38 27.06 o
6 -4 13 1.55143 15993.62 15953.54 64.42 o
6 -4 16 1.33115 3753.98 3744.07 16.26 o
6 -4 19 1.15932 0.76 0.76 0.00 o
6 -4 22 1.02355 2970.45 2966.72 16.92 o
6 -3 -24 0.95025 2408.13 2408.14 8.14 o
6 -3 -21 1.06818 591.03 590.87 3.35 o
6 -3 -18 1.21608 438.79 440.12 2.10 o
6 -3 -15 1.40471 2354.33 2345.30 9.84 o
6 -3 -12 1.64806 2693.73 2690.13 11.82 o
6 -3 -9 1.95979 153.46 152.65 0.61 o
6 -3 -6 2.33535 18092.85 18003.42 60.74 o
6 -3 -3 2.70022 2318.88 2313.54 6.71 o
6 -3 0 2.86593 6275.60 6256.49 16.96 o
6 -3 3 2.70022 2.78 2.78 0.01 o
6 -3 6 2.33535 7996.09 7956.57 26.84 o
6 -3 9 1.95979 42.86 42.64 0.17 o
6 -3 12 1.64806 9.53 9.52 0.04 o
6 -3 15 1.40471 6200.61 6176.83 25.92 o
6 -3 18 1.21608 3442.46 3452.87 16.45 o
6 -3 21 1.06818 2742.82 2742.08 15.53 o
6 -3 24 0.95025 2098.95 2098.96 7.10 o
6 -2 -22 1.02355 1494.31 1492.43 8.51 o
6 -2 -19 1.15932 766.84 771.30 3.94 o
6 -2 -16 1.33115 245.36 244.71 1.06 o
6 -2 -13 1.55143 37931.52 37836.45 152.78 o
6 -2 -10 1.83375 367.41 369.36 1.55 o
6 -2 -7 2.18160 10.02 9.87 0.04 o
6 -2 -4 2.55122 1165.44 1162.12 3.53 o
6 -2 -1 2.79540 4085.26 4056.47 11.48 o
6 -2 2 2.74097 3042.11 3007.35 8.71 o
6 -2 5 2.43222 3936.77 4023.89 12.65 o
6 -2 8 2.05942 25804.87 26283.28 100.07 o
6 -2 11 1.73208 2350.46 2338.84 10.30 o
6 -2 14 1.47175 209.09 209.26 0.90 o
6 -2 17 1.26916 1658.73 1667.91 7.51 o
6 -2 20 1.11058 102.18 102.42 0.58 o
6 -2 23 0.98460 641.76 641.15 3.43 o
6 -1 -23 0.97821 1301.99 1301.82 6.67 o
6 -1 -20 1.10143 118.51 118.97 0.67 o
6 -1 -17 1.25556 5844.37 5853.27 26.41 o
6 -1 -14 1.45065 31316.26 31377.24 130.77 o
6 -1 -11 1.69796 28312.25 27928.69 115.63 o
6 -1 -8 2.00277 692.05 683.71 2.53 o
6 -1 -5 2.34038 267.66 266.64 0.88 o
6 -1 -2 2.61147 2708.51 2693.74 8.04 o
6 -1 1 2.65842 2872.28 2847.45 8.21 o
6 -1 4 2.44582 4334.14 4440.90 13.51 o
6 -1 7 2.11459 154818.98 163914.73 530.47 o
6 -1 10 1.79341 5136.54 5255.44 22.79 o
6 -1 13 1.52678 213.71 215.76 0.91 o
6 -1 16 1.31548 146.48 145.74 0.64 o
6 -1 19 1.14893 508.70 509.77 2.64 o
6 -1 22 1.01637 779.60 777.25 4.41 o
6 0 -24 0.93331 1308.54 1308.60 4.09 o
6 0 -21 1.04427 269.74 269.82 1.54 o
6 0 -18 1.18115 344.66 343.40 1.69 o
6 0 -15 1.35164 28343.26 28564.03 124.68 o
6 0 -12 1.56411 43485.99 43394.88 179.11 o
6 0 -9 1.82287 6420.65 6546.25 26.57 o
6 0 -6 2.11317 35.16 37.22 0.11 o
6 0 -3 2.37199 1107.45 1106.66 3.54 o
6 0 0 2.48197 702.40 717.07 2.29 o
6 0 3 2.37199 34016.06 33991.89 108.74 o
6 0 6 2.11317 31201.61 33034.11 100.74 o
6 0 9 1.82287 52077.64 53096.38 215.51 o
6 0 12 1.56411 433.45 432.55 1.79 o
6 0 15 1.35164 2.44 2.46 0.01 o
6 0 18 1.18115 286.49 285.44 1.41 o
6 0 21 1.04427 203.99 204.05 1.17 o
6 0 24 0.93331 900.06 900.10 2.82 o
7 -6 -23 0.95383 289.56 289.56 1.01 o
7 -6 -20 1.06697 1.32 1.32 0.01 o
7 -6 -17 1.20521 1572.45 1576.71 7.58 o
7 -6 -14 1.37450 563.00 567.18 2.50 o
7 -6 -11 1.57924 2670.04 2680.99 11.41 o
7 -6 -8 1.81542 17729.41 18261.46 74.03 o
7 -6 -5 2.05551 58849.30 59803.42 295.04 o
7 -6 -2 2.23192 1048.43 1033.70 3.64 o
7 -6 1 2.26102 345.18 339.65 1.18 o
7 -6 4 2.12584 149.19 151.95 0.49 o
7 -6 7 1.89746 34.87 34.15 0.14 o
7 -6 10 1.65515 5376.49 5377.05 23.63 o
7 -6 13 1.43873 27994.60 27865.66 114.90 o
7 -6 16 1.25790 11917.80 11948.74 53.89 o
7 -6 19 1.10997 539.23 540.60 3.05 o
7 -6 22 0.98910 694.55 693.82 3.75 o
7 -5 -21 1.03665 193.02 193.72 1.11 o
7 -5 -18 1.17016 1030.49 1030.42 5.21 o
7 -5 -15 1.33524 3538.83 3532.99 15.31 o
7 -5 -12 1.53885 29.83 30.07 0.12 o
7 -5 -9 1.78323 47.16 47.89 0.21 o
7 -5 -6 2.05210 61307.55 62297.23 248.20 o
7 -5 -3 2.28657 3020.04 2982.71 10.29 o
7 -5 0 2.38460 4422.99 4418.84 13.93 o
7 -5 3 2.28657 12017.81 11869.25 40.93 o
7 -5 6 2.05210 167.74 170.45 0.68 o
7 -5 9 1.78323 1707.16 1733.49 7.54 o
7 -5 12 1.53885 10982.31 11067.94 45.30 o
7 -5 15 1.33524 10388.84 10371.70 44.94 o
7 -5 18 1.17016 41.41 41.41 0.21 o
7 -5 21 1.03665 686.81 689.30 3.96 o
7 -4 -22 1.00246 206.56 207.06 1.17 o
7 -4 -19 1.12894 85.60 85.28 0.46 o
7 -4 -16 1.28572 7516.99 7523.47 34.20 o
7 -4 -13 1.48079 1649.70 1647.45 7.05 o
7 -4 -10 1.72013 113.98 112.41 0.48 o
7 -4 -7 1.99722 25681.83 25388.77 95.04 o
7 -4 -4 2.26908 1758.17 1740.53 5.94 o
7 -4 -1 2.43574 28528.93 29170.73 93.75 o
7 -4 2 2.39947 7958.86 7979.47 25.38 o
7 -4 5 2.18413 14.90 14.65 0.05 o
7 -4 8 1.90221 3.46 3.37 0.01 o
7 -4 11 1.63538 17.12 17.12 0.08 o
7 -4 14 1.41104 9978.29 9895.60 41.02 o
7 -4 17 1.22961 5140.60 5141.60 24.13 o
7 -4 20 1.08379 2095.40 2096.32 11.97 o
7 -4 23 0.96579 293.92 293.84 1.29 o
7 -3 -23 0.96579 342.43 342.34 1.50 o
7 -3 -20 1.08379 110.89 110.94 0.63 o
7 -3 -17 1.22961 877.88 878.05 4.12 o
7 -3 -14 1.41104 1734.12 1719.75 7.13 o
7 -3 -11 1.63538 3551.22 3549.68 15.70 o
7 -3 -8 1.90221 1149.61 1120.37 4.85 o
7 -3 -5 2.18413 7847.11 7713.56 27.61 o
7 -3 -2 2.39947 17662.72 17708.47 56.33 o
7 -3 1 2.43574 1907.12 1950.02 6.27 o
7 -3 4 2.26908 108.95 107.85 0.37 o
7 -3 7 1.99722 5751.21 5685.59 21.28 o
7 -3 10 1.72013 1967.24 1940.15 8.26 o
7 -3 13 1.48079 36.76 36.71 0.16 o
7 -3 16 1.28572 3457.78 3460.76 15.73 o
7 -3 19 1.12894 88.70 88.36 0.48 o
7 -3 22 1.00246 143.33 143.68 0.81 o
7 -2 -21 1.03665 36.28 36.42 0.21 o
7 -2 -18 1.17016 51.47 51.47 0.26 o
7 -2 -15 1.33524 6316.50 6306.08 27.32 o
7 -2 -12 1.53885 24182.37 24370.92 99.74 o
7 -2 -9 1.78323 720.88 731.99 3.18 o
7 -2 -6 2.05210 417.67 424.42 1.69 o
7 -2 -3 2.28657 2201.42 2174.20 7.50 o
7 -2 0 2.38460 11370.62 11359.95 35.82 o
7 -2 3 2.28657 1788.81 1766.70 6.09 o
7 -2 6 2.05210 46173.87 46919.24 186.93 o
7 -2 9 1.78323 2159.27 2192.57 9.53 o
7 -2 12 1.53885 47.20 47.57 0.19 o
7 -2 15 1.33524 1151.10 1149.21 4.98 o
7 -2 18 1.17016 605.35 605.31 3.06 o
7 -2 21 1.03665 242.46 243.34 1.40 o
7 -1 -22 0.98910 106.41 106.30 0.57 o
7 -1 -19 1.10997 111.26 111.54 0.63 o
7 -1 -16 1.25790 9194.50 9218.38 41.57 o
7 -1 -13 1.43873 27368.08 27242.02 112.33 o
7 -1 -10 1.65515 6960.88 6961.60 30.59 o
7 -1 -7 1.89746 1755.53 1719.24 6.94 o
7 -1 -4 2.12584 13313.54 13559.50 43.32 o
7 -1 -1 2.26102 2500.22 2460.20 8.56 o
7 -1 2 2.23192 3394.19 3346.50 11.80 o
7 -1 5 2.05551 57936.97 58876.29 290.46 o
7 -1 8 1.81542 39603.67 40792.16 165.36 o
7 -1 11 1.57924 110.24 110.69 0.47 o
7 -1 14 1.37450 99.49 100.23 0.44 o
7 -1 17 1.20521 53.37 53.51 0.26 o
7 -1 20 1.06697 304.00 304.09 1.72 o
7 -1 23 0.95383 921.68 921.69 3.21 o
7 0 -23 0.94230 829.45 829.47 2.68 o
7 0 -20 1.05091 279.95 279.58 1.58 o
7 0 -17 1.18220 1184.26 1179.91 5.79 o
7 0 -14 1.34067 25784.66 25798.39 111.75 o
7 0 -11 1.52851 8516.00 8606.14 36.20 o
7 0 -8 1.73952 506.10 505.47 2.23 o
7 0 -5 1.94722 894.76 888.02 3.59 o
7 0 -2 2.09519 12895.27 13258.41 44.00 o
7 0 1 2.11921 985.46 1032.37 3.81 o
7 0 4 2.00670 42826.02 42240.92 161.47 o
7 0 7 1.81129 17157.99 17678.82 72.64 o
7 0 10 1.59703 8246.10 8292.71 36.45 o
7 0 13 1.40006 2323.45 2325.43 9.88 o
7 0 16 1.23181 15.21 15.20 0.07 o
7 0 19 1.09192 16.78 16.77 0.09 o
7 0 22 0.97627 357.93 357.91 1.82 o
8 -7 -21 0.99420 218.49 218.69 1.22 o
8 -7 -18 1.11010 495.75 496.98 2.80 o
8 -7 -15 1.24799 1826.92 1821.23 8.26 o
8 -7 -12 1.40936 59.37 58.92 0.24 o
8 -7 -9 1.58982 181.86 182.48 0.79 o
8 -7 -6 1.77155 39411.10 39638.23 172.05 o
8 -7 -3 1.91590 7795.96 7647.55 31.08 o
8 -7 0 1.97247 50.86 50.40 0.20 o
8 -7 3 1.91590 138.14 135.51 0.55 o
8 -7 6 1.77155 427.85 430.32 1.87 o
8 -7 9 1.58982 3789.45 3802.31 16.52 o
8 -7 12 1.40936 9667.06 9594.13 39.88 o
8 -7 15 1.24799 9111.93 9083.55 41.19 o
8 -7 18 1.11010 389.86 390.83 2.20 o
8 -7 21 0.99420 71.28 71.35 0.40 o
8 -6 -22 0.97003 467.36 467.46 2.27 o
8 -6 -19 1.08322 426.74 426.85 2.44 o
8 -6 -16 1.21936 2241.92 2246.74 10.66 o
8 -6 -13 1.38186 429.71 432.55 1.89 o
8 -6 -10 1.57017 1939.97 1942.87 8.19 o
8 -6 -7 1.77239 20690.26 20813.90 90.41 o
8 -6 -4 1.95418 46.07 45.73 0.18 o
8 -6 -1 2.05763 0.55 0.56 0.00 o
8 -6 2 2.03562 5380.23 5385.77 19.36 o
8 -6 5 1.89912 524.77 512.69 2.17 o
8 -6 8 1.70498 2.15 2.11 0.01 o
8 -6 11 1.50492 3747.28 3740.70 15.69 o
8 -6 14 1.32466 11363.62 11309.93 49.44 o
8 -6 17 1.17118 223.17 223.04 1.12 o
8 -6 20 1.04314 30.33 30.34 0.17 o
8 -6 23 0.93669 681.81 681.84 2.16 o
8 -5 -23 0.94230 9.36 9.36 0.03 o
8 -5 -20 1.05091 1388.26 1386.41 7.84 o
8 -5 -17 1.18220 7254.82 7228.21 35.50 o
8 -5 -14 1.34067 21.08 21.10 0.09 o
8 -5 -11 1.52851 3743.34 3782.96 15.91 o
8 -5 -8 1.73952 5039.10 5032.87 22.24 o
8 -5 -5 1.94722 1227.25 1217.99 4.93 o
8 -5 -2 2.09519 11162.44 11476.78 38.09 o
8 -5 1 2.11921 1574.71 1649.68 6.09 o
8 -5 4 2.00670 10815.55 10667.79 40.78 o
8 -5 7 1.81129 1735.77 1788.46 7.35 o
8 -5 10 1.59703 1159.48 1166.04 5.13 o
8 -5 13 1.40006 6209.58 6214.87 26.39 o
8 -5 16 1.23181 2349.84 2349.17 11.00 o
8 -5 19 1.09192 46.98 46.98 0.27 o
8 -5 22 0.97627 35.99 35.98 0.18 o
8 -4 -21 1.01476 221.88 221.27 1.25 o
8 -4 -18 1.13894 5074.10 5058.27 26.71 o
8 -4 -15 1.28940 510.01 509.03 2.31 o
8 -4 -12 1.46984 3882.07 3886.18 16.66 o
8 -4 -9 1.67823 134.25 133.98 0.61 o
8 -4 -6 1.89644 172.90 169.58 0.67 o
8 -4 -3 2.07683 14657.72 15196.70 48.08 o
8 -4 0 2.14945 7598.91 7542.57 26.62 o
8 -4 3 2.07683 13394.23 13886.75 43.94 o
8 -4 6 1.89644 1458.43 1430.46 5.65 o
8 -4 9 1.67823 5537.81 5526.62 24.99 o
8 -4 12 1.46984 1081.18 1082.33 4.64 o
8 -4 15 1.28940 1113.77 1111.63 5.05 o
8 -4 18 1.13894 2551.29 2543.33 13.43 o
8 -4 21 1.01476 106.79 106.49 0.60 o
8 -3 -22 0.97627 266.05 266.03 1.35 o
8 -3 -19 1.09192 655.94 655.88 3.71 o
8 -3 -16 1.23181 31.25 31.24 0.15 o
8 -3 -13 1.40006 2737.87 2740.21 11.64 o
8 -3 -10 1.59703 1745.55 1755.41 7.72 o
8 -3 -7 1.81129 641.45 660.92 2.72 o
8 -3 -4 2.00670 2056.08 2027.99 7.75 o
8 -3 -1 2.11921 12197.94 12778.69 47.19 o
8 -3 2 2.09519 20321.34 20893.60 69.34 o
8 -3 5 1.94722 10991.66 10908.78 44.14 o
8 -3 8 1.73952 1263.77 1262.21 5.58 o
8 -3 11 1.52851 630.66 637.33 2.68 o
8 -3 14 1.34067 1332.39 1333.10 5.77 o
8 -3 17 1.18220 1247.64 1243.07 6.10 o
8 -3 20 1.05091 2739.98 2736.33 15.48 o
8 -3 23 0.94230 53.87 53.87 0.17 o
8 -2 -23 0.93669 8.66 8.66 0.03 o
8 -2 -20 1.04314 187.77 187.85 1.08 o
8 -2 -17 1.17118 4.22 4.21 0.02 o
8 -2 -14 1.32466 7132.73 7099.03 31.03 o
8 -2 -11 1.50492 6332.29 6321.18 26.51 o
8 -2 -8 1.70498 50.82 49.81 0.21 o
8 -2 -5 1.89912 1870.49 1827.46 7.74 o
8 -2 -2 2.03562 23.22 23.24 0.08 o
8 -2 1 2.05763 18772.24 19090.35 86.78 o
8 -2 4 1.95418 9161.66 9093.64 36.59 o
8 -2 7 1.77239 116.22 116.91 0.51 o
8 -2 10 1.57017 2582.57 2586.43 10.91 o
8 -2 13 1.38186 14.73 14.83 0.06 o
8 -2 16 1.21936 421.15 422.05 2.00 o
8 -2 19 1.08322 311.17 311.26 1.78 o
8 -2 22 0.97003 266.70 266.76 1.30 o
8 -1 -21 0.99420 53.26 53.31 0.30 o
8 -1 -18 1.11010 135.47 135.80 0.77 o
8 -1 -15 1.24799 7067.01 7045.00 31.95 o
8 -1 -12 1.40936 2982.36 2959.86 12.30 o
8 -1 -9 1.58982 598.46 600.49 2.61 o
8 -1 -6 1.77155 2691.19 2706.70 11.75 o
8 -1 -3 1.91590 1884.44 1848.56 7.51 o
8 -1 0 1.97247 914.36 906.02 3.61 o
8 -1 3 1.91590 8951.03 8780.64 35.69 o
8 -1 6 1.77155 4070.13 4093.59 17.77 o
8 -1 9 1.58982 3795.06 3807.95 16.54 o
8 -1 12 1.40936 2838.88 2817.46 11.71 o
8 -1 15 1.24799 14.86 14.81 0.07 o
8 -1 18 1.11010 10.79 10.81 0.06 o
8 -1 21 0.99420 67.87 67.94 0.38 o
8 0 -22 0.94624 273.15 273.15 0.90 o
8 0 -19 1.05039 547.54 546.93 3.10 o
8 0 -16 1.17308 111.07 110.88 0.56 o
8 0 -13 1.31556 5867.18 5837.56 25.76 o
8 0 -10 1.47487 309.83 309.75 1.33 o
8 0 -7 1.63858 921.82 920.62 4.06 o
8 0 -4 1.77899 12942.79 13070.13 56.06 o
8 0 -1 1.85598 2430.17 2439.79 10.38 o
8 0 2 1.83978 1462.39 1469.58 6.27 o
8 0 5 1.73716 5671.33 5659.34 24.95 o
8 0 8 1.58488 554.77 556.46 2.39 o
8 0 11 1.42040 528.70 523.31 2.16 o
8 0 14 1.26592 3553.84 3567.38 16.05 o
8 0 17 1.13000 422.00 420.34 2.28 o
8 0 20 1.01373 290.06 289.28 1.63 o
9 -8 -19 1.02763 72.00 72.10 0.41 o
9 -8 -16 1.14164 2096.10 2091.63 10.98 o
9 -8 -13 1.27166 2128.28 2140.83 9.67 o
9 -8 -10 1.41378 5425.76 5375.93 22.19 o
9 -8 -7 1.55600 1902.61 1895.70 7.73 o
9 -8 -4 1.67469 1409.08 1408.35 6.26 o
9 -8 -1 1.73844 2326.38 2322.53 10.25 o
9 -8 2 1.72511 2115.15 2091.04 8.99 o
9 -8 5 1.63966 16988.27 16962.74 74.70 o
9 -8 8 1.50979 3643.63 3632.65 15.23 o
9 -8 11 1.36559 557.53 561.66 2.49 o
9 -8 14 1.22666 1917.97 1919.25 9.03 o
9 -8 17 1.10181 615.39 617.86 3.50 o
9 -8 20 0.99323 401.40 401.57 2.23 o
9 -7 -20 1.00675 3.05 3.05 0.02 o
9 -7 -17 1.12036 1690.23 1687.38 9.33 o
9 -7 -14 1.25242 458.82 458.38 2.07 o
9 -7 -11 1.40140 7089.77 7087.98 30.00 o
9 -7 -8 1.55862 282.67 281.40 1.16 o
9 -7 -5 1.70275 284.47 279.07 1.18 o
9 -7 -2 1.79906 153.74 156.85 0.67 o
9 -7 1 1.81419 1937.57 1997.20 8.12 o
9 -7 4 1.74209 1069.86 1069.87 4.74 o
9 -7 7 1.60961 23.92 23.98 0.11 o
9 -7 10 1.45364 3048.78 3053.59 12.81 o
9 -7 13 1.30043 6265.49 6226.79 28.10 o
9 -7 16 1.16231 38.47 38.64 0.20 o
9 -7 19 1.04263 218.38 218.49 1.25 o
9 -7 22 0.94056 3.30 3.30 0.01 o
9 -6 -21 0.98117 1686.76 1686.64 8.86 o
9 -6 -18 1.09204 4915.40 4915.12 27.79 o
9 -6 -15 1.22250 346.41 346.87 1.64 o
9 -6 -12 1.37295 3654.09 3681.98 16.22 o
9 -6 -9 1.53810 370.05 373.12 1.53 o
9 -6 -6 1.70081 616.27 605.85 2.54 o
9 -6 -3 1.82731 4016.40 4061.40 16.68 o
9 -6 0 1.87619 11236.78 11131.56 44.99 o
9 -6 3 1.82731 970.81 981.69 4.03 o
9 -6 6 1.70081 4375.72 4301.75 18.01 o
9 -6 9 1.53810 349.56 352.46 1.45 o
9 -6 12 1.37295 5650.74 5693.87 25.08 o
9 -6 15 1.22250 529.42 530.12 2.51 o
9 -6 18 1.09204 158.95 158.94 0.90 o
9 -6 21 0.98117 894.37 894.30 4.70 o
9 -5 -22 0.95203 564.79 564.79 1.93 o
9 -5 -19 1.05831 8213.43 8199.71 45.69 o
9 -5 -16 1.18416 1361.83 1356.59 6.64 o
9 -5 -13 1.33124 26.10 26.03 0.11 o
9 -5 -10 1.49706 3414.84 3415.32 14.55 o
9 -5 -7 1.66918 650.63 651.40 2.87 o
9 -5 -4 1.81835 2648.62 2719.04 11.02 o
9 -5 -1 1.90080 38477.76 37526.24 164.00 o
9 -5 2 1.88341 11713.22 11532.96 45.70 o
9 -5 5 1.77374 4574.38 4603.39 19.96 o
9 -5 8 1.61251 1523.73 1524.79 6.69 o
9 -5 11 1.44018 5166.79 5149.11 21.22 o
9 -5 14 1.27987 812.79 815.34 3.71 o
9 -5 17 1.13988 2142.62 2136.74 11.26 o
9 -5 20 1.02085 2177.32 2170.87 12.37 o
9 -4 -20 1.02085 2746.24 2738.11 15.60 o
9 -4 -17 1.13988 1586.11 1581.75 8.33 o
9 -4 -14 1.27987 0.54 0.54 0.00 o
9 -4 -11 1.44018 4409.07 4393.98 18.11 o
9 -4 -8 1.61251 96.73 96.80 0.42 o
9 -4 -5 1.77374 466.98 469.94 2.04 o
9 -4 -2 1.88341 28203.70 27769.66 110.05 o
9 -4 1 1.90080 32369.27 31568.81 137.96 o
9 -4 4 1.81835 3805.13 3906.30 15.83 o
9 -4 7 1.66918 1620.31 1622.23 7.15 o
9 -4 10 1.49706 4717.45 4718.12 20.10 o
9 -4 13 1.33124 119.16 118.85 0.52 o
9 -4 16 1.18416 2044.81 2036.94 9.96 o
9 -4 19 1.05831 9495.43 9479.56 52.82 o
9 -4 22 0.95203 389.39 389.39 1.33 o
9 -3 -21 0.98117 1007.89 1007.81 5.29 o
9 -3 -18 1.09204 786.67 786.63 4.45 o
9 -3 -15 1.22250 397.48 398.01 1.88 o
9 -3 -12 1.37295 372.67 375.52 1.65 o
9 -3 -9 1.53810 638.48 643.78 2.64 o
9 -3 -6 1.70081 117.04 115.06 0.48 o
9 -3 -3 1.82731 7658.92 7744.74 31.82 o
9 -3 0 1.87619 18405.32 18232.99 73.68 o
9 -3 3 1.82731 4468.65 4518.72 18.56 o
9 -3 6 1.70081 697.71 685.91 2.87 o
9 -3 9 1.53810 1242.11 1252.42 5.14 o
9 -3 12 1.37295 3078.56 3102.06 13.66 o
9 -3 15 1.22250 2433.94 2437.17 11.52 o
9 -3 18 1.09204 1904.15 1904.04 10.76 o
9 -3 21 0.98117 3811.60 3811.31 20.01 o
9 -2 -22 0.94056 101.77 101.77 0.33 o
9 -2 -19 1.04263 558.96 559.25 3.20 o
9 -2 -16 1.16231 65.78 66.07 0.34 o
9 -2 -13 1.30043 299.97 298.12 1.35 o
9 -2 -10 1.45364 1055.98 1057.64 4.44 o
9 -2 -7 1.60961 4116.49 4125.51 18.10 o
9 -2 -4 1.74209 2715.05 2715.06 12.03 o
9 -2 -1 1.81419 1.00 1.04 0.00 o
9 -2 2 1.79906 16520.90 16855.33 72.16 o
9 -2 5 1.70275 1228.88 1205.59 5.10 o
9 -2 8 1.55862 222.09 221.09 0.91 o
9 -2 11 1.40140 3490.87 3489.98 14.77 o
9 -2 14 1.25242 502.95 502.47 2.27 o
9 -2 17 1.12036 126.07 125.86 0.70 o
9 -2 20 1.00675 1137.23 1137.53 6.38 o
9 -1 -20 0.99323 265.65 265.76 1.48 o
9 -1 -17 1.10181 535.53 537.68 3.04 o
9 -1 -14 1.22666 641.22 641.65 3.02 o
9 -1 -11 1.36559 587.45 591.80 2.62 o
9 -1 -8 1.50979 2518.53 2510.94 10.53 o
9 -1 -5 1.63966 6735.46 6725.34 29.62 o
9 -1 -2 1.72511 615.41 608.39 2.62 o
9 -1 1 1.73844 3425.76 3420.09 15.10 o
9 -1 4 1.67469 139.50 139.43 0.62 o
9 -1 7 1.55600 48.65 48.48 0.20 o
9 -1 10 1.41378 305.00 302.20 1.25 o
9 -1 13 1.27166 3334.23 3353.89 15.14 o
9 -1 16 1.14164 1525.05 1521.80 7.99 o
9 -1 19 1.02763 51.37 51.44 0.29 o
9 0 -21 0.94494 16.21 16.21 0.05 o
9 0 -18 1.04274 968.79 969.27 5.55 o
9 0 -15 1.15448 746.63 750.84 3.84 o
9 0 -12 1.27862 566.09 568.08 2.58 o
9 0 -9 1.40878 3730.01 3703.04 15.41 o
9 0 -6 1.53059 8270.25 8360.93 34.99 o
9 0 -3 1.62082 17818.07 17744.21 78.23 o
9 0 0 1.65464 1031.11 1031.07 4.53 o
9 0 3 1.62082 30.66 30.53 0.13 o
9 0 6 1.53059 2.06 2.08 0.01 o
9 0 9 1.40878 5512.95 5473.09 22.78 o
9 0 12 1.27862 517.91 519.73 2.36 o
9 0 15 1.15448 7986.94 8032.03 41.10 o
9 0 18 1.04274 868.82 869.25 4.98 o
9 0 21 0.94494 1223.44 1223.46 4.01 o
10 -9 -20 0.95570 1028.45 1028.45 3.64 o
10 -9 -17 1.05123 1494.33 1492.11 8.43 o
10 -9 -14 1.15798 6556.27 6596.16 33.67 o
10 -9 -11 1.27266 10569.12 10629.58 48.06 o
10 -9 -8 1.38693 191.31 192.36 0.84 o
10 -9 -5 1.48556 819.39 818.28 3.50 o
10 -9 -2 1.54822 9.39 9.37 0.04 o
10 -9 1 1.55784 225.76 224.78 0.93 o
10 -9 4 1.51147 10687.33 10656.19 44.54 o
10 -9 7 1.42249 16865.88 16700.32 68.93 o
10 -9 10 1.31140 2482.63 2469.82 10.98 o
10 -9 13 1.19561 297.31 296.99 1.44 o
10 -9 16 1.08566 2408.74 2410.13 13.73 o
10 -9 19 0.98623 187.08 186.87 1.00 o
10 -8 -21 0.93929 350.12 350.13 1.12 o
10 -8 -18 1.03516 182.11 182.88 1.05 o
10 -8 -15 1.14421 956.48 955.47 4.99 o
10 -8 -12 1.26471 9528.20 9558.67 43.03 o
10 -8 -9 1.39024 827.45 831.26 3.59 o
10 -8 -6 1.50690 3498.69 3490.35 14.62 o
10 -8 -3 1.59277 1625.57 1632.43 7.12 o
10 -8 0 1.62483 480.11 478.38 2.12 o
10 -8 3 1.59277 29.29 29.41 0.13 o
10 -8 6 1.50690 14442.12 14407.68 60.35 o
10 -8 9 1.39024 1158.90 1164.23 5.03 o
10 -8 12 1.26471 134.60 135.03 0.61 o
10 -8 15 1.14421 942.92 941.92 4.92 o
10 -8 18 1.03516 11.43 11.48 0.07 o
10 -8 21 0.93929 293.11 293.11 0.94 o
10 -7 -19 1.01326 3939.32 3928.91 22.14 o
10 -7 -16 1.12203 258.39 257.88 1.42 o
10 -7 -13 1.24472 5093.52 5078.58 23.13 o
10 -7 -10 1.37704 928.43 935.01 4.11 o
10 -7 -7 1.50741 1431.27 1427.63 5.98 o
10 -7 -4 1.61456 11425.41 11417.51 50.09 o
10 -7 -1 1.67145 6806.95 6811.33 30.03 o
10 -7 2 1.65959 157.63 157.84 0.70 o
10 -7 5 1.58309 1.86 1.87 0.01 o
10 -7 8 1.46528 26.15 26.17 0.11 o
10 -7 11 1.33239 239.55 238.98 1.04 o
10 -7 14 1.20243 605.88 606.91 2.92 o
10 -7 17 1.08415 393.86 394.07 2.25 o
10 -7 20 0.98023 2898.14 2898.20 15.10 o
10 -6 -20 0.98666 10533.83 10521.75 56.44 o
10 -6 -17 1.09287 934.11 934.27 5.28 o
10 -6 -14 1.21436 61.32 61.50 0.29 o
10 -6 -11 1.34868 3724.33 3747.20 16.30 o
10 -6 -8 1.48704 111.09 110.97 0.47 o
10 -6 -5 1.61063 6673.63 6685.21 29.32 o
10 -6 -2 1.69140 16005.05 15850.56 66.84 o
10 -6 1 1.70396 44859.68 43974.92 186.20 o
10 -6 4 1.64380 1207.17 1205.21 5.30 o
10 -6 7 1.53113 2015.94 2037.97 8.52 o
10 -6 10 1.39505 926.76 929.45 3.98 o
10 -6 13 1.25798 1078.04 1080.85 4.87 o
10 -6 16 1.13170 229.54 228.56 1.23 o
10 -6 19 1.02037 6069.67 6050.47 34.47 o
10 -5 -21 0.95657 4601.98 4601.96 16.45 o
10 -5 -18 1.05842 4785.17 4777.51 26.62 o
10 -5 -15 1.17588 487.99 486.44 2.43 o
10 -5 -12 1.30787 1209.29 1202.53 5.38 o
10 -5 -9 1.44820 394.05 394.62 1.64 o
10 -5 -6 1.58153 8111.49 8141.36 34.81 o
10 -5 -3 1.68169 7717.15 7689.83 33.97 o
10 -5 0 1.71956 53869.26 53131.96 225.61 o
10 -5 3 1.68169 3161.43 3150.24 13.92 o
10 -5 6 1.58153 23373.31 23459.40 100.30 o
10 -5 9 1.44820 2885.17 2889.31 11.99 o
10 -5 12 1.30787 23.43 23.30 0.10 o
10 -5 15 1.17588 25.33 25.25 0.13 o
10 -5 18 1.05842 11839.12 11820.15 65.86 o
10 -5 21 0.95657 1665.76 1665.76 5.95 o
10 -4 -19 1.02037 1501.92 1497.17 8.53 o
10 -4 -16 1.13170 489.57 487.49 2.63 o
10 -4 -13 1.25798 86.61 86.84 0.39 o
10 -4 -10 1.39505 1106.83 1110.03 4.76 o
10 -4 -7 1.53113 3574.42 3613.49 15.10 o
10 -4 -4 1.64380 1829.60 1826.62 8.04 o
10 -4 -1 1.70396 32129.96 31496.27 133.36 o
10 -4 2 1.69140 6502.48 6439.71 27.16 o
10 -4 5 1.61063 15326.19 15352.78 67.33 o
10 -4 8 1.48704 5270.54 5264.80 22.51 o
10 -4 11 1.34868 3354.65 3375.25 14.68 o
10 -4 14 1.21436 5.64 5.65 0.03 o
10 -4 17 1.09287 7025.23 7026.46 39.71 o
10 -4 20 0.98666 7309.83 7301.45 39.17 o
10 -3 -20 0.98023 524.50 524.51 2.73 o
10 -3 -17 1.08415 324.45 324.62 1.85 o
10 -3 -14 1.20243 497.74 498.59 2.40 o
10 -3 -11 1.33239 343.79 342.97 1.49 o
10 -3 -8 1.46528 1768.95 1770.17 7.57 o
10 -3 -5 1.58309 1210.75 1214.76 5.21 o
10 -3 -2 1.65959 6693.53 6702.29 29.56 o
10 -3 1 1.67145 6151.88 6155.84 27.14 o
10 -3 4 1.61456 1729.13 1727.93 7.58 o
10 -3 7 1.50741 1087.89 1085.12 4.55 o
10 -3 10 1.37704 5957.56 5999.77 26.35 o
10 -3 13 1.24472 5077.51 5062.63 23.06 o
10 -3 16 1.12203 3208.47 3202.24 17.65 o
10 -3 19 1.01326 1835.44 1830.59 10.32 o
10 -2 -21 0.93929 7.56 7.56 0.02 o
10 -2 -18 1.03516 546.44 548.75 3.15 o
10 -2 -15 1.14421 479.89 479.39 2.50 o
10 -2 -12 1.26471 2203.01 2210.06 9.95 o
10 -2 -9 1.39024 165.58 166.34 0.72 o
10 -2 -6 1.50690 6555.67 6540.03 27.40 o
10 -2 -3 1.59277 170.19 170.91 0.75 o
10 -2 0 1.62483 1478.02 1472.70 6.52 o
10 -2 3 1.59277 4512.55 4531.59 19.78 o
10 -2 6 1.50690 0.69 0.68 0.00 o
10 -2 9 1.39024 431.88 433.86 1.88 o
10 -2 12 1.26471 7853.54 7878.65 35.47 o
10 -2 15 1.14421 551.67 551.09 2.88 o
10 -2 18 1.03516 26.17 26.28 0.15 o
10 -2 21 0.93929 279.06 279.07 0.89 o
10 -1 -19 0.98623 262.82 262.52 1.41 o
10 -1 -16 1.08566 1629.64 1630.58 9.29 o
10 -1 -13 1.19561 3834.45 3830.36 18.58 o
10 -1 -10 1.31140 725.43 721.69 3.21 o
10 -1 -7 1.42249 14584.59 14441.43 59.61 o
10 -1 -4 1.51147 11099.84 11067.49 46.26 o
10 -1 -1 1.55784 722.53 719.40 2.97 o
10 -1 2 1.54822 771.00 769.52 3.13 o
10 -1 5 1.48556 525.75 525.04 2.24 o
10 -1 8 1.38693 340.64 342.50 1.49 o
10 -1 11 1.27266 6893.70 6933.14 31.34 o
10 -1 14 1.15798 2465.20 2480.20 12.66 o
10 -1 17 1.05123 3220.94 3216.15 18.18 o
10 -1 20 0.95570 344.96 344.96 1.22 o
10 0 -20 0.93847 2.07 2.07 0.01 o
10 0 -17 1.02843 2488.85 2493.76 14.26 o
10 0 -14 1.12771 4004.70 3990.46 21.73 o
10 0 -11 1.23279 7.17 7.16 0.03 o
10 0 -8 1.33577 25524.57 25486.90 110.41 o
10 0 -5 1.42320 14665.28 14523.72 59.96 o
10 0 -2 1.47800 12132.74 12119.90 51.89 o
10 0 1 1.48636 4906.58 4900.58 20.95 o
10 0 4 1.44593 358.88 359.05 1.49 o
10 0 7 1.36745 128.79 129.78 0.57 o
10 0 10 1.26790 15504.74 15581.40 70.15 o
10 0 13 1.16237 2243.33 2253.07 11.49 o
10 0 16 1.06059 8475.27 8472.62 47.20 o
10 0 19 0.96733 949.07 948.85 4.38 o
11 -10 -18 0.97359 2017.34 2018.52 10.22 o
11 -10 -15 1.06265 3636.17 3638.08 20.33 o
11 -10 -12 1.15705 13569.96 13652.80 69.71 o
11 -10 -9 1.25084 2503.60 2498.51 11.29 o
11 -10 -6 1.33377 349.47 348.75 1.51 o
11 -10 -3 1.39221 44.53 44.71 0.19 o
11 -10 0 1.41347 4.70 4.66 0.02 o
11 -10 3 1.39221 7937.39 7968.54 34.33 o
11 -10 6 1.33377 18456.40 18418.49 79.84 o
11 -10 9 1.25084 10178.57 10157.91 45.89 o
11 -10 12 1.15705 43.22 43.48 0.22 o
11 -10 15 1.06265 2322.93 2324.15 12.98 o
11 -10 18 0.97359 2543.17 2544.66 12.88 o
11 -9 -19 0.96126 544.77 544.74 2.08 o
11 -9 -16 1.05261 177.01 176.63 0.99 o
11 -9 -13 1.15189 17181.20 17257.38 88.68 o
11 -9 -10 1.25434 11.78 11.78 0.05 o
11 -9 -7 1.35048 5343.26 5382.61 23.46 o
11 -9 -4 1.42590 243.14 241.00 0.99 o
11 -9 -1 1.46464 44.44 44.47 0.19 o
11 -9 2 1.45664 38.62 38.66 0.16 o
11 -9 5 1.40409 6368.94 6348.89 26.69 o
11 -9 8 1.31994 9430.14 9376.38 41.17 o
11 -9 11 1.22031 58.60 58.71 0.28 o
11 -9 14 1.11813 548.33 547.78 3.05 o
11 -9 17 1.02115 1500.70 1496.48 8.53 o
11 -9 20 0.93293 213.94 213.95 0.67 o
11 -8 -20 0.94411 465.85 465.86 1.52 o
11 -8 -17 1.03586 394.60 396.17 2.27 o
11 -8 -14 1.13753 5777.60 5756.10 30.51 o
11 -8 -11 1.24566 711.75 709.52 3.23 o
11 -8 -8 1.35219 1085.41 1093.97 4.78 o
11 -8 -5 1.44310 1720.38 1718.39 7.09 o
11 -8 -2 1.50034 2911.38 2909.66 12.31 o
11 -8 1 1.50908 13.56 13.52 0.06 o
11 -8 4 1.46682 2572.75 2574.79 11.02 o
11 -8 7 1.38508 11424.04 11491.49 50.06 o
11 -8 10 1.28192 795.93 797.93 3.63 o
11 -8 13 1.17314 251.62 251.17 1.26 o
11 -8 16 1.06875 117.39 117.32 0.67 o
11 -8 19 0.97351 133.15 133.23 0.67 o
11 -7 -18 1.01336 3056.06 3047.96 17.18 o
11 -7 -15 1.11497 27.65 27.67 0.15 o
11 -7 -12 1.22556 2480.30 2482.39 11.70 o
11 -7 -9 1.33873 726.24 726.03 3.14 o
11 -7 -6 1.44192 1015.71 1013.67 4.19 o
11 -7 -3 1.51661 2891.31 2891.02 12.12 o
11 -7 0 1.54421 26606.43 26654.92 108.01 o
11 -7 3 1.51661 5496.52 5495.97 23.03 o
11 -7 6 1.44192 242.80 242.31 1.00 o
11 -7 9 1.33873 343.44 343.34 1.49 o
11 -7 12 1.22556 293.60 293.85 1.38 o
11 -7 15 1.11497 4.37 4.37 0.02 o
11 -7 18 1.01336 507.09 505.75 2.85 o
11 -6 -19 0.98623 9689.28 9678.40 51.88 o
11 -6 -16 1.08566 136.92 137.00 0.78 o
11 -6 -13 1.19561 2.61 2.61 0.01 o
11 -6 -10 1.31140 629.24 625.99 2.78 o
11 -6 -7 1.42249 2552.45 2527.40 10.43 o
11 -6 -4 1.51147 6869.50 6849.48 28.63 o
11 -6 -1 1.55784 37875.33 37711.16 155.44 o
11 -6 2 1.54822 18253.48 18218.52 74.01 o
11 -6 5 1.48556 5483.96 5476.57 23.41 o
11 -6 8 1.38693 562.88 565.96 2.46 o
11 -6 11 1.27266 986.28 991.92 4.48 o
11 -6 14 1.15798 231.01 232.41 1.19 o
11 -6 17 1.05123 1211.94 1210.14 6.84 o
11 -6 20 0.95570 5702.06 5702.05 20.19 o
11 -5 -20 0.95570 5117.54 5117.53 18.12 o
11 -5 -17 1.05123 1692.25 1689.74 9.55 o
11 -5 -14 1.15798 75.75 76.21 0.39 o
11 -5 -11 1.27266 676.81 680.68 3.08 o
11 -5 -8 1.38693 1496.46 1504.64 6.54 o
11 -5 -5 1.48556 1793.30 1790.88 7.66 o
11 -5 -2 1.54822 28465.33 28410.80 115.41 o
11 -5 1 1.55784 32972.33 32829.41 135.32 o
11 -5 4 1.51147 8024.92 8001.53 33.44 o
11 -5 7 1.42249 1264.50 1252.09 5.17 o
11 -5 10 1.31140 4223.99 4202.19 18.67 o
11 -5 13 1.19561 70.63 70.56 0.34 o
11 -5 16 1.08566 248.13 248.27 1.41 o
11 -5 19 0.98623 11775.21 11761.99 63.05 o
11 -4 -18 1.01336 118.46 118.15 0.67 o
11 -4 -15 1.11497 721.05 721.47 4.04 o
11 -4 -12 1.22556 82.01 82.08 0.39 o
11 -4 -9 1.33873 2105.13 2104.51 9.11 o
11 -4 -6 1.44192 747.02 745.52 3.08 o
11 -4 -3 1.51661 3783.96 3783.59 15.86 o
11 -4 0 1.54421 22998.54 23040.46 93.36 o
11 -4 3 1.51661 12665.60 12664.34 53.07 o
11 -4 6 1.44192 60.68 60.56 0.25 o
11 -4 9 1.33873 3914.38 3913.22 16.94 o
11 -4 12 1.22556 271.53 271.76 1.28 o
11 -4 15 1.11497 516.06 516.37 2.89 o
11 -4 18 1.01336 6364.81 6347.94 35.78 o
11 -3 -19 0.97351 186.98 187.09 0.95 o
11 -3 -16 1.06875 573.11 572.78 3.25 o
11 -3 -13 1.17314 869.34 867.79 4.36 o
11 -3 -10 1.28192 530.71 532.05 2.42 o
11 -3 -7 1.38508 19.80 19.91 0.09 o
11 -3 -4 1.46682 192.17 192.32 0.82 o
11 -3 -1 1.50908 2671.70 2663.86 11.17 o
11 -3 2 1.50034 4320.92 4318.38 18.27 o
11 -3 5 1.44310 621.34 620.62 2.56 o
11 -3 8 1.35219 2132.92 2149.74 9.39 o
11 -3 11 1.24566 130.13 129.72 0.59 o
11 -3 14 1.13753 5596.99 5576.16 29.55 o
11 -3 17 1.03586 1159.22 1163.85 6.68 o
11 -3 20 0.94411 490.16 490.17 1.60 o
11 -2 -20 0.93293 0.97 0.97 0.00 o
11 -2 -17 1.02115 283.37 282.57 1.61 o
11 -2 -14 1.11813 3413.56 3410.11 18.96 o
11 -2 -11 1.22031 88.97 89.13 0.42 o
11 -2 -8 1.31994 2273.84 2260.87 9.93 o
11 -2 -5 1.40409 5462.85 5445.65 22.89 o
11 -2 -2 1.45664 31.35 31.39 0.13 o
11 -2 1 1.46464 127.41 127.49 0.55 o
11 -2 4 1.42590 1170.53 1160.21 4.78 o
11 -2 7 1.35048 336.46 338.94 1.48 o
11 -2 10 1.25434 551.53 551.86 2.49 o
11 -2 13 1.15189 8685.03 8723.53 44.83 o
11 -2 16 1.05261 748.70 747.09 4.21 o
11 -2 19 0.96126 38.36 38.36 0.15 o
11 -1 -18 0.97359 748.82 749.26 3.79 o
11 -1 -15 1.06265 3659.76 3661.68 20.46 o
11 -1 -12 1.15705 7.57 7.61 0.04 o
11 -1 -9 1.25084 11832.32 11808.31 53.35 o
11 -1 -6 1.33377 11435.91 11412.41 49.47 o
11 -1 -3 1.39221 11645.40 11691.10 50.37 o
11 -1 0 1.41347 3715.92 3682.15 15.21 o
11 -1 3 1.39221 245.18 246.14 1.06 o
11 -1 6 1.33377 503.81 502.78 2.18 o
11 -1 9 1.25084 373.82 373.06 1.69 o
11 -1 12 1.15705 12012.76 12086.09 61.71 o
11 -1 15 1.06265 3873.17 3875.20 21.65 o
11 -1 18 0.97359 1745.09 1746.11 8.84 o
11 0 -16 1.00825 2221.84 2220.03 12.44 o
11 0 -13 1.09446 34.28 34.31 0.19 o
11 0 -10 1.18118 4562.07 4545.33 22.37 o
11 0 -7 1.26041 20278.80 20331.93 91.58 o
11 0 -4 1.32106 13786.68 13707.16 60.14 o
11 0 -1 1.35168 877.75 884.59 3.86 o
11 0 2 1.34539 885.98 888.83 3.86 o
11 0 5 1.30365 534.10 530.63 2.39 o
11 0 8 1.23547 639.99 639.17 2.97 o
11 0 11 1.15264 24200.68 24318.94 124.78 o
11 0 14 1.06538 2366.83 2368.49 13.33 o
11 0 17 0.98050 4903.66 4903.71 25.60 o
12 -11 -16 0.98161 2223.67 2223.29 11.72 o
12 -11 -13 1.06063 7950.68 7948.39 44.28 o
12 -11 -10 1.13897 7875.87 7851.40 41.46 o
12 -11 -7 1.20949 261.76 262.41 1.26 o
12 -11 -4 1.26278 383.64 384.65 1.73 o
12 -11 -1 1.28944 20.48 20.44 0.09 o
12 -11 2 1.28398 196.85 197.20 0.90 o
12 -11 5 1.24755 14502.02 14455.88 65.59 o
12 -11 8 1.18741 8204.42 8168.94 39.79 o
12 -11 11 1.11331 98.48 98.62 0.55 o
12 -11 14 1.03410 191.96 192.80 1.11 o
12 -11 17 0.95595 1234.14 1234.14 4.38 o
12 -10 -17 0.97418 541.89 542.14 2.75 o
12 -10 -14 1.05729 9637.94 9616.28 53.64 o
12 -10 -11 1.14242 1109.83 1107.78 5.81 o
12 -10 -8 1.22291 3198.92 3202.93 15.13 o
12 -10 -5 1.28892 5430.16 5421.77 24.62 o
12 -10 -2 1.32921 1.67 1.67 0.01 o
12 -10 1 1.33528 392.21 391.57 1.70 o
12 -10 4 1.30574 2930.33 2912.40 13.06 o
12 -10 7 1.24708 8311.15 8284.39 37.61 o
12 -10 10 1.17019 48.25 48.24 0.24 o
12 -10 13 1.08570 141.74 141.82 0.81 o
12 -10 16 1.00139 99.34 99.57 0.57 o
12 -9 -18 0.96134 146.38 146.37 0.56 o
12 -9 -15 1.04678 1025.62 1025.66 5.85 o
12 -9 -12 1.13665 4318.64 4301.03 22.85 o
12 -9 -9 1.22518 55.48 55.53 0.26 o
12 -9 -6 1.30278 279.16 277.34 1.25 o
12 -9 -3 1.35708 9.78 9.85 0.04 o
12 -9 0 1.37675 57.39 57.80 0.25 o
12 -9 3 1.35708 1316.28 1325.83 5.84 o
12 -9 6 1.30278 8387.49 8332.66 37.50 o
12 -9 9 1.22518 225.36 225.57 1.06 o
12 -9 12 1.13665 584.91 582.52 3.10 o
12 -9 15 1.04678 1631.75 1631.82 9.30 o
12 -9 18 0.96134 1474.21 1474.12 5.64 o
12 -8 -19 0.94373 356.40 356.41 1.16 o
12 -8 -16 1.02971 529.61 531.09 3.04 o
12 -8 -13 1.12208 2362.20 2357.60 12.99 o
12 -8 -10 1.21611 263.41 264.21 1.26 o
12 -8 -7 1.30312 1563.33 1553.12 6.99 o
12 -8 -4 1.37048 384.03 387.04 1.71 o
12 -8 -1 1.40476 6102.76 6079.01 25.51 o
12 -8 2 1.39770 2290.97 2295.68 9.79 o
12 -8 5 1.35108 1119.22 1127.75 4.92 o
12 -8 8 1.27561 185.94 186.80 0.85 o
12 -8 11 1.18503 154.52 153.90 0.75 o
12 -8 14 1.09080 2671.96 2671.22 15.12 o
12 -8 17 1.00020 1559.50 1563.02 8.90 o
12 -7 -17 1.00704 2104.55 2104.63 11.80 o
12 -7 -14 1.09969 247.13 247.90 1.40 o
12 -7 -11 1.19645 36.92 36.89 0.18 o
12 -7 -8 1.28989 1023.06 1020.73 4.63 o
12 -7 -5 1.36808 2153.62 2170.41 9.60 o
12 -7 -2 1.41655 15347.22 15194.05 62.55 o
12 -7 1 1.42390 16357.61 16202.68 66.88 o
12 -7 4 1.38823 3082.92 3098.80 13.44 o
12 -7 7 1.31835 475.40 472.84 2.08 o
12 -7 10 1.22846 39.70 39.72 0.19 o
12 -7 13 1.13176 2259.91 2250.25 12.13 o
12 -7 16 1.03718 2175.47 2182.73 12.53 o
12 -7 19 0.94947 187.72 187.73 0.63 o
12 -6 -18 0.97990 5847.74 5847.85 30.37 o
12 -6 -15 1.07086 16.03 16.00 0.09 o
12 -6 -12 1.16768 162.73 162.92 0.83 o
12 -6 -9 1.26429 19.71 19.77 0.09 o
12 -6 -6 1.35011 283.00 285.03 1.24 o
12 -6 -3 1.41083 12153.45 12053.72 49.98 o
12 -6 0 1.43296 32164.51 31938.05 131.79 o
12 -6 3 1.41083 13515.30 13404.40 55.58 o
12 -6 6 1.35011 267.72 269.64 1.17 o
12 -6 9 1.26429 170.47 170.99 0.77 o
12 -6 12 1.16768 3333.55 3337.33 16.93 o
12 -6 15 1.07086 1561.92 1559.28 8.87 o
12 -6 18 0.97990 1538.59 1538.62 7.99 o
12 -5 -19 0.94947 1884.13 1884.14 6.34 o
12 -5 -16 1.03718 594.26 596.25 3.42 o
12 -5 -13 1.13176 929.06 925.08 4.99 o
12 -5 -10 1.22846 97.46 97.49 0.46 o
12 -5 -7 1.31835 1492.01 1483.95 6.52 o
12 -5 -4 1.38823 880.56 885.09 3.84 o
12 -5 -1 1.42390 24787.71 24552.93 101.34 o
12 -5 2 1.41655 20428.54 20224.66 83.26 o
12 -5 5 1.36808 378.58 381.54 1.69 o
12 -5 8 1.28989 31.36 31.29 0.14 o
12 -5 11 1.19645 2782.44 2780.47 13.48 o
12 -5 14 1.09969 120.35 120.73 0.68 o
12 -5 17 1.00704 997.49 997.53 5.59 o
12 -4 -17 1.00020 3.16 3.17 0.02 o
12 -4 -14 1.09080 0.47 0.47 0.00 o
12 -4 -11 1.18503 113.20 112.75 0.55 o
12 -4 -8 1.27561 4813.88 4836.14 21.93 o
12 -4 -5 1.35108 478.31 481.96 2.10 o
12 -4 -2 1.39770 5751.34 5763.17 24.59 o
12 -4 1 1.40476 7013.85 6986.56 29.32 o
12 -4 4 1.37048 120.36 121.30 0.54 o
12 -4 7 1.30312 1884.57 1872.26 8.42 o
12 -4 10 1.21611 2113.31 2119.70 10.10 o
12 -4 13 1.12208 49.45 49.35 0.27 o
12 -4 16 1.02971 58.00 58.16 0.33 o
12 -4 19 0.94373 1892.57 1892.60 6.16 o
12 -3 -18 0.96134 8.54 8.54 0.03 o
12 -3 -15 1.04678 32.52 32.52 0.19 o
12 -3 -12 1.13665 127.01 126.49 0.67 o
12 -3 -9 1.22518 611.29 611.84 2.88 o
12 -3 -6 1.30278 2263.27 2248.48 10.12 o
12 -3 -3 1.35708 44.66 44.99 0.20 o
12 -3 0 1.37675 1396.44 1406.37 6.18 o
12 -3 3 1.35708 230.24 231.91 1.02 o
12 -3 6 1.30278 4193.42 4166.01 18.75 o
12 -3 9 1.22518 1831.47 1833.12 8.64 o
12 -3 12 1.13665 244.98 243.98 1.30 o
12 -3 15 1.04678 2721.28 2721.38 15.51 o
12 -3 18 0.96134 293.82 293.81 1.12 o
12 -2 -16 1.00139 29.23 29.30 0.17 o
12 -2 -13 1.08570 35.68 35.70 0.20 o
12 -2 -10 1.17019 306.15 306.12 1.55 o
12 -2 -7 1.24708 4633.18 4618.26 20.97 o
12 -2 -4 1.30574 6339.43 6300.64 28.26 o
12 -2 -1 1.33528 578.18 577.23 2.50 o
12 -2 2 1.32921 32.96 32.86 0.14 o
12 -2 5 1.28892 1308.57 1306.55 5.93 o
12 -2 8 1.22291 294.08 294.45 1.39 o
12 -2 11 1.14242 1094.90 1092.88 5.73 o
12 -2 14 1.05729 5551.00 5538.53 30.90 o
12 -2 17 0.97418 800.95 801.33 4.07 o
12 -1 -17 0.95595 168.35 168.35 0.60 o
12 -1 -14 1.03410 456.69 458.67 2.63 o
12 -1 -11 1.11331 2.10 2.10 0.01 o
12 -1 -8 1.18741 8918.19 8879.63 43.26 o
12 -1 -5 1.24755 12044.20 12005.88 54.47 o
12 -1 -2 1.28398 2599.30 2603.88 11.84 o
12 -1 1 1.28944 2676.94 2671.73 12.13 o
12 -1 4 1.26278 1440.47 1444.26 6.50 o
12 -1 7 1.20949 167.19 167.61 0.80 o
12 -1 10 1.13897 3046.01 3036.54 16.03 o
12 -1 13 1.06063 6117.84 6116.07 34.07 o
12 -1 16 0.98161 2959.16 2958.66 15.59 o
12 0 -15 0.98325 991.00 990.37 5.27 o
12 0 -12 1.05659 144.39 144.02 0.80 o
12 0 -9 1.12655 5833.22 5814.23 31.73 o
12 0 -6 1.18600 13645.63 13588.66 66.29 o
12 0 -3 1.22652 1077.52 1078.26 5.08 o
12 0 0 1.24098 442.51 441.62 2.03 o
12 0 3 1.22652 3.30 3.30 0.02 o
12 0 6 1.18600 0.33 0.33 0.00 o
12 0 9 1.12655 642.70 640.61 3.50 o
12 0 12 1.05659 11822.80 11792.56 65.85 o
12 0 15 0.98325 2822.78 2820.98 15.01 o
13 -12 -14 0.97900 8280.20 8279.79 42.68 o
13 -12 -11 1.04541 2230.21 2230.64 12.74 o
13 -12 -8 1.10602 21.88 21.97 0.12 o
13 -12 -5 1.15413 266.06 267.53 1.37 o
13 -12 -2 1.18279 447.82 446.17 2.19 o
13 -12 1 1.18706 3204.80 3190.99 15.55 o
13 -12 4 1.16616 3216.61 3222.93 16.39 o
13 -12 7 1.12380 3828.36 3819.46 20.97 o
13 -12 10 1.06656 868.45 868.82 4.90 o
13 -12 13 1.00142 906.12 908.29 5.16 o
13 -12 16 0.93411 1883.47 1883.55 5.91 o
13 -11 -15 0.97688 6161.31 6160.38 31.40 o
13 -11 -12 1.04870 356.46 356.29 2.02 o
13 -11 -9 1.11700 2761.19 2759.87 15.38 o
13 -11 -6 1.17487 2792.80 2785.14 13.92 o
13 -11 -3 1.21423 2491.25 2498.41 11.92 o
13 -11 0 1.22825 9.85 9.86 0.05 o
13 -11 3 1.21423 2.84 2.85 0.01 o
13 -11 6 1.17487 4409.00 4396.91 21.98 o
13 -11 9 1.11700 465.26 465.03 2.59 o
13 -11 12 1.04870 179.08 179.00 1.02 o
13 -11 15 0.97688 34.53 34.52 0.18 o
13 -10 -16 0.96906 1157.23 1157.24 5.55 o
13 -10 -13 1.04485 1577.89 1578.25 9.02 o
13 -10 -10 1.11949 315.27 314.80 1.74 o
13 -10 -7 1.18625 46.31 46.11 0.22 o
13 -10 -4 1.23639 10174.65 10160.02 47.21 o
13 -10 -1 1.26138 98.30 98.55 0.44 o
13 -10 2 1.25626 73.16 73.30 0.33 o
13 -10 5 1.22209 1255.19 1256.96 5.94 o
13 -10 8 1.16539 62.57 62.73 0.32 o
13 -10 11 1.09510 111.77 111.87 0.63 o
13 -10 14 1.01945 1825.46 1819.29 10.36 o
13 -10 17 0.94434 0.07 0.07 0.00 o
13 -9 -17 0.95595 3.54 3.54 0.01 o
13 -9 -14 1.03410 25.34 25.45 0.15 o
13 -9 -11 1.11331 0.58 0.58 0.00 o
13 -9 -8 1.18741 995.02 990.72 4.83 o
13 -9 -5 1.24755 2734.87 2726.17 12.37 o
13 -9 -2 1.28398 1.07 1.07 0.00 o
13 -9 1 1.28944 11.25 11.23 0.05 o
13 -9 4 1.26278 1520.18 1524.18 6.86 o
13 -9 7 1.20949 714.71 716.50 3.43 o
13 -9 10 1.13897 407.57 406.30 2.15 o
13 -9 13 1.06063 3585.80 3584.77 19.97 o
13 -9 16 0.98161 257.31 257.27 1.36 o
13 -8 -18 0.93817 676.95 676.97 2.15 o
13 -8 -15 1.01706 3.27 3.26 0.02 o
13 -8 -12 1.09889 277.85 278.61 1.58 o
13 -8 -9 1.17826 222.96 222.13 1.10 o
13 -8 -6 1.24679 8277.81 8251.09 37.48 o
13 -8 -3 1.29413 5123.31 5100.86 23.13 o
13 -8 0 1.31115 2920.18 2905.09 12.92 o
13 -8 3 1.29413 3509.18 3493.80 15.84 o
13 -8 6 1.24679 36.46 36.34 0.17 o
13 -8 9 1.17826 156.07 155.49 0.77 o
13 -8 12 1.09889 4124.25 4135.51 23.38 o
13 -8 15 1.01706 296.37 295.43 1.68 o
13 -8 18 0.93817 67.48 67.48 0.21 o
13 -7 -16 0.99466 305.36 305.71 1.72 o
13 -7 -13 1.07715 6.62 6.61 0.04 o
13 -7 -10 1.15950 508.78 511.72 2.61 o
13 -7 -7 1.23416 7903.06 7895.40 36.83 o
13 -7 -4 1.29093 3139.90 3130.57 14.21 o
13 -7 -1 1.31946 7475.17 7433.11 32.65 o
13 -7 2 1.31361 21639.94 21529.48 95.31 o
13 -7 5 1.27468 1399.24 1406.26 6.37 o
13 -7 8 1.21072 132.64 132.96 0.64 o
13 -7 11 1.13247 603.60 600.93 3.23 o
13 -7 14 1.04939 653.50 653.04 3.71 o
13 -7 17 0.96799 805.54 805.40 3.78 o
13 -6 -17 0.96799 2005.50 2005.16 9.42 o
13 -6 -14 1.04939 397.80 397.52 2.26 o
13 -6 -11 1.13247 3367.70 3352.79 18.03 o
13 -6 -8 1.21072 125.05 125.35 0.60 o
13 -6 -5 1.27468 1.32 1.32 0.01 o
13 -6 -2 1.31361 2688.23 2674.51 11.84 o
13 -6 1 1.31946 19829.87 19718.29 86.61 o
13 -6 4 1.29093 118.33 117.98 0.54 o
13 -6 7 1.23416 235.59 235.36 1.10 o
13 -6 10 1.15950 0.19 0.19 0.00 o
13 -6 13 1.07715 611.53 610.45 3.49 o
13 -6 16 0.99466 1342.51 1344.07 7.55 o
13 -5 -18 0.93817 58.07 58.07 0.18 o
13 -5 -15 1.01706 70.38 70.16 0.40 o
13 -5 -12 1.09889 7831.43 7852.80 44.39 o
13 -5 -9 1.17826 225.99 225.15 1.12 o
13 -5 -6 1.24679 469.45 467.94 2.13 o
13 -5 -3 1.29413 1233.94 1228.53 5.57 o
13 -5 0 1.31115 6639.09 6604.79 29.36 o
13 -5 3 1.29413 16.08 16.01 0.07 o
13 -5 6 1.24679 2652.43 2643.87 12.01 o
13 -5 9 1.17826 228.11 227.26 1.13 o
13 -5 12 1.09889 289.45 290.24 1.64 o
13 -5 15 1.01706 239.92 239.16 1.36 o
13 -5 18 0.93817 630.10 630.12 2.00 o
13 -4 -16 0.98161 39.42 39.42 0.21 o
13 -4 -13 1.06063 5464.04 5462.47 30.43 o
13 -4 -10 1.13897 252.93 252.15 1.33 o
13 -4 -7 1.20949 2642.45 2649.07 12.69 o
13 -4 -4 1.26278 199.39 199.92 0.90 o
13 -4 -1 1.28944 1251.93 1249.49 5.67 o
13 -4 2 1.28398 136.95 137.19 0.62 o
13 -4 5 1.24755 4918.52 4902.87 22.25 o
13 -4 8 1.18741 1854.28 1846.26 8.99 o
13 -4 11 1.11331 105.46 105.60 0.59 o
13 -4 14 1.03410 0.02 0.02 0.00 o
13 -4 17 0.95595 9.95 9.95 0.04 o
13 -3 -17 0.94434 10.42 10.42 0.03 o
13 -3 -14 1.01945 6383.16 6361.56 36.21 o
13 -3 -11 1.09510 59.48 59.54 0.34 o
13 -3 -8 1.16539 72.07 72.24 0.37 o
13 -3 -5 1.22209 2343.10 2346.40 11.09 o
13 -3 -2 1.25626 785.11 786.65 3.55 o
13 -3 1 1.26138 36.37 36.47 0.16 o
13 -3 4 1.23639 3169.57 3165.01 14.71 o
13 -3 7 1.18625 3748.62 3732.82 18.20 o
13 -3 10 1.11949 12.87 12.85 0.07 o
13 -3 13 1.04485 145.70 145.74 0.83 o
13 -3 16 0.96906 705.64 705.64 3.38 o
13 -2 -15 0.97688 3204.91 3204.42 16.34 o
13 -2 -12 1.04870 233.95 233.84 1.33 o
13 -2 -9 1.11700 8.21 8.20 0.05 o
13 -2 -6 1.17487 5919.38 5903.15 29.51 o
13 -2 -3 1.21423 580.18 581.84 2.78 o
13 -2 0 1.22825 386.28 386.44 1.82 o
13 -2 3 1.21423 960.51 963.28 4.60 o
13 -2 6 1.17487 1717.82 1713.11 8.56 o
13 -2 9 1.11700 398.27 398.08 2.22 o
13 -2 12 1.04870 547.05 546.80 3.11 o
13 -2 15 0.97688 1395.82 1395.61 7.11 o
13 -1 -16 0.93411 342.68 342.69 1.07 o
13 -1 -13 1.00142 0.04 0.04 0.00 o
13 -1 -10 1.06656 1.71 1.71 0.01 o
13 -1 -7 1.12380 9659.06 9636.63 52.91 o
13 -1 -4 1.16616 1913.40 1917.16 9.75 o
13 -1 -1 1.18706 241.67 240.63 1.17 o
13 -1 2 1.18279 1656.38 1650.26 8.09 o
13 -1 5 1.15413 1413.45 1421.28 7.28 o
13 -1 8 1.10602 672.32 674.94 3.82 o
13 -1 11 1.04541 1620.57 1620.88 9.26 o
13 -1 14 0.97900 3462.56 3462.39 17.85 o
13 0 -14 0.95456 10.81 10.81 0.04 o
13 0 -11 1.01580 151.18 150.74 0.85 o
13 0 -8 1.07114 2502.50 2498.01 14.22 o
13 0 -5 1.11466 4094.78 4097.81 22.94 o
13 0 -2 1.14041 2668.73 2661.91 14.01 o
13 0 1 1.14424 260.19 259.92 1.36 o
13 0 4 1.12548 1967.09 1961.41 10.73 o
13 0 7 1.08727 22.61 22.62 0.13 o
13 0 10 1.03518 354.58 356.07 2.04 o
13 0 13 0.97531 7883.83 7885.05 40.12 o
14 -13 -12 0.96601 870.57 870.34 3.84 o
14 -13 -9 1.01860 239.23 238.42 1.36 o
14 -13 -6 1.06191 105.19 105.22 0.59 o
14 -13 -3 1.09070 2928.33 2927.49 16.57 o
14 -13 0 1.10083 1695.76 1701.98 9.63 o
14 -13 3 1.09070 1445.14 1444.73 8.18 o
14 -13 6 1.06191 1100.08 1100.39 6.14 o
14 -13 9 1.01860 40.20 40.07 0.23 o
14 -13 12 0.96601 719.25 719.06 3.17 o
14 -12 -13 0.96909 352.57 352.57 1.69 o
14 -12 -10 1.02775 1413.60 1415.72 8.09 o
14 -12 -7 1.07867 3469.63 3464.54 19.84 o
14 -12 -4 1.11596 475.09 475.12 2.65 o
14 -12 -1 1.13424 613.41 610.59 3.27 o
14 -12 2 1.13051 3843.98 3828.54 20.71 o
14 -12 5 1.10541 1235.71 1240.72 7.02 o
14 -12 8 1.06292 39.64 39.66 0.22 o
14 -12 11 1.00879 0.58 0.58 0.00 o
14 -12 14 0.94873 1351.89 1351.90 4.52 o
14 -11 -14 0.96655 156.28 156.24 0.70 o
14 -11 -11 1.03028 1.37 1.37 0.01 o
14 -11 -8 1.08816 888.22 888.18 5.04 o
14 -11 -5 1.13388 3595.53 3578.98 19.17 o
14 -11 -2 1.16102 4003.74 4024.22 20.53 o
14 -11 1 1.16506 1568.66 1572.78 8.01 o
14 -11 4 1.14528 112.79 112.74 0.59 o
14 -11 7 1.10508 20.42 20.50 0.12 o
14 -11 10 1.05052 37.07 37.02 0.21 o
14 -11 13 0.98811 3267.14 3263.37 17.57 o
14 -10 -15 0.95849 0.83 0.83 0.00 o
14 -10 -12 1.02605 45.18 45.19 0.26 o
14 -10 -9 1.08975 8030.17 8027.73 45.48 o
14 -10 -6 1.14329 285.41 284.98 1.49 o
14 -10 -3 1.17946 10360.41 10321.68 51.02 o
14 -10 0 1.19230 121.36 121.03 0.59 o
14 -10 3 1.17946 10.83 10.79 0.05 o
14 -10 6 1.14329 14.31 14.29 0.07 o
14 -10 9 1.08975 16.14 16.13 0.09 o
14 -10 12 1.02605 7801.61 7804.19 44.58 o
14 -10 15 0.95849 1172.86 1172.85 4.29 o
14 -9 -16 0.94534 29.76 29.76 0.10 o
14 -9 -13 1.01529 308.47 307.60 1.74 o
14 -9 -10 1.08336 2188.14 2188.83 12.50 o
14 -9 -7 1.14351 4745.10 4738.49 24.79 o
14 -9 -4 1.18822 2057.58 2048.74 9.97 o
14 -9 -1 1.21036 296.18 296.89 1.42 o
14 -9 2 1.20583 303.35 304.21 1.46 o
14 -9 5 1.17551 241.42 240.69 1.20 o
14 -9 8 1.12479 164.18 163.75 0.90 o
14 -9 11 1.06121 8793.23 8793.19 49.01 o
14 -9 14 0.99194 1937.74 1937.39 10.67 o
14 -8 -14 0.99861 7.20 7.22 0.04 o
14 -8 -11 1.06939 660.90 660.27 3.75 o
14 -8 -8 1.13454 1957.03 1948.05 10.42 o
14 -8 -5 1.18665 7523.54 7491.43 36.52 o
14 -8 -2 1.21787 1691.73 1696.24 8.06 o
14 -8 1 1.22253 6215.14 6223.36 29.41 o
14 -8 4 1.19973 1135.51 1136.10 5.49 o
14 -8 7 1.15376 14.94 15.02 0.08 o
14 -8 10 1.09207 1013.52 1013.47 5.73 o
14 -8 13 1.02245 4397.77 4388.98 25.03 o
14 -8 16 0.95111 213.91 213.91 0.73 o
14 -7 -15 0.97688 168.40 168.37 0.86 o
14 -7 -12 1.04870 37.52 37.51 0.21 o
14 -7 -9 1.11700 689.38 689.05 3.84 o
14 -7 -6 1.17487 5960.13 5943.79 29.71 o
14 -7 -3 1.21423 313.51 314.41 1.50 o
14 -7 0 1.22825 4913.21 4915.21 23.10 o
14 -7 3 1.21423 340.27 341.25 1.63 o
14 -7 6 1.17487 1689.61 1684.97 8.42 o
14 -7 9 1.11700 38.61 38.59 0.22 o
14 -7 12 1.04870 1405.91 1405.26 7.98 o
14 -7 15 0.97688 30.89 30.89 0.16 o
14 -6 -16 0.95111 3.06 3.06 0.01 o
14 -6 -13 1.02245 3386.52 3379.75 19.27 o
14 -6 -10 1.09207 5946.15 5945.85 33.62 o
14 -6 -7 1.15376 2138.05 2149.60 11.01 o
14 -6 -4 1.19973 121.28 121.35 0.59 o
14 -6 -1 1.22253 3119.71 3123.83 14.76 o
14 -6 2 1.21787 748.70 750.69 3.57 o
14 -6 5 1.18665 2357.69 2347.63 11.44 o
14 -6 8 1.13454 3422.38 3406.69 18.21 o
14 -6 11 1.06939 75.22 75.15 0.43 o
14 -6 14 0.99861 0.04 0.04 0.00 o
14 -5 -14 0.99194 2162.23 2161.85 11.90 o
14 -5 -11 1.06121 11419.79 11419.74 63.65 o
14 -5 -8 1.12479 22.59 22.53 0.12 o
14 -5 -5 1.17551 17.72 17.67 0.09 o
14 -5 -2 1.20583 146.20 146.62 0.70 o
14 -5 1 1.21036 46.81 46.92 0.22 o
14 -5 4 1.18822 4201.21 4183.15 20.36 o
14 -5 7 1.14351 7106.83 7096.93 37.13 o
14 -5 10 1.08336 620.03 620.23 3.54 o
14 -5 13 1.01529 190.64 190.10 1.08 o
14 -5 16 0.94534 214.85 214.85 0.71 o
14 -4 -15 0.95849 4395.92 4395.86 16.08 o
14 -4 -12 1.02605 5756.68 5758.58 32.89 o
14 -4 -9 1.08975 623.06 622.87 3.53 o
14 -4 -6 1.14329 212.44 212.12 1.11 o
14 -4 -3 1.17946 1.47 1.46 0.01 o
14 -4 0 1.19230 174.75 174.27 0.85 o
14 -4 3 1.17946 3047.59 3036.20 15.01 o
14 -4 6 1.14329 7258.30 7247.46 37.93 o
14 -4 9 1.08975 2051.76 2051.14 11.62 o
14 -4 12 1.02605 548.80 548.99 3.14 o
14 -4 15 0.95849 177.60 177.60 0.65 o
14 -3 -13 0.98811 4703.05 4697.62 25.30 o
14 -3 -10 1.05052 32.20 32.16 0.18 o
14 -3 -7 1.10508 233.08 234.04 1.32 o
14 -3 -4 1.14528 129.88 129.82 0.68 o
14 -3 -1 1.16506 49.87 50.00 0.25 o
14 -3 2 1.16102 862.56 866.97 4.42 o
14 -3 5 1.13388 7830.04 7794.00 41.75 o
14 -3 8 1.08816 667.72 667.69 3.79 o
14 -3 11 1.03028 322.59 323.60 1.85 o
14 -3 14 0.96655 7.69 7.69 0.03 o
14 -2 -14 0.94873 3988.25 3988.28 13.35 o
14 -2 -11 1.00879 26.73 26.70 0.15 o
14 -2 -8 1.06292 565.96 566.29 3.17 o
14 -2 -5 1.10541 73.14 73.44 0.42 o
14 -2 -2 1.13051 61.13 60.88 0.33 o
14 -2 1 1.13424 570.34 567.71 3.04 o
14 -2 4 1.11596 2374.58 2374.75 13.26 o
14 -2 7 1.07867 4.55 4.54 0.03 o
14 -2 10 1.02775 86.11 86.24 0.49 o
14 -2 13 0.96909 898.67 898.68 4.31 o
14 -1 -12 0.96601 10.83 10.83 0.05 o
14 -1 -9 1.01860 1.26 1.25 0.01 o
14 -1 -6 1.06191 1124.79 1125.11 6.28 o
14 -1 -3 1.09070 453.28 453.15 2.56 o
14 -1 0 1.10083 821.25 824.26 4.66 o
14 -1 3 1.09070 3268.80 3267.86 18.49 o
14 -1 6 1.06191 116.55 116.58 0.65 o
14 -1 9 1.01860 5.02 5.00 0.03 o
14 -1 12 0.96601 2713.21 2712.49 11.97 o
14 0 -10 0.97361 221.32 221.45 1.12 o
14 0 -7 1.01657 0.02 0.02 0.00 o
14 0 -4 1.04760 403.05 402.99 2.29 o
14 0 -1 1.06267 2346.94 2348.18 13.12 o
14 0 2 1.05960 4469.41 4465.52 24.87 o
14 0 5 1.03885 1625.42 1629.05 9.35 o
14 0 8 1.00335 17.74 17.78 0.10 o
14 0 11 0.95744 763.55 763.55 2.76 o
15 -14 -10 0.94382 79.76 79.76 0.26 o
15 -14 -7 0.98280 116.95 116.89 0.62 o
15 -14 -4 1.01075 1306.27 1303.54 7.31 o
15 -14 -1 1.02427 9902.13 9894.35 56.46 o
15 -14 2 1.02153 1643.83 1639.57 9.35 o
15 -14 5 1.00289 686.78 688.41 3.90 o
15 -14 8 0.97084 458.93 459.12 2.25 o
15 -13 -11 0.95156 195.15 195.15 0.67 o
15 -13 -8 0.99658 150.24 150.52 0.85 o
15 -13 -5 1.03135 210.37 211.15 1.21 o
15 -13 -2 1.05165 3168.27 3162.93 17.86 o
15 -13 1 1.05465 1868.45 1863.21 10.44 o
15 -13 4 1.03991 1335.38 1337.49 7.67 o
15 -13 7 1.00954 18.53 18.51 0.10 o
15 -13 10 0.96743 55.97 55.96 0.26 o
15 -12 -12 0.95404 1.67 1.67 0.01 o
15 -12 -9 1.00460 189.27 189.61 1.07 o
15 -12 -6 1.04607 4263.16 4263.75 24.33 o
15 -12 -3 1.07356 20.20 20.16 0.12 o
15 -12 0 1.08322 27.12 27.13 0.16 o
15 -12 3 1.07356 816.87 815.17 4.65 o
15 -12 6 1.04607 371.12 371.17 2.12 o
15 -12 9 1.00460 96.39 96.57 0.54 o
15 -12 12 0.95404 2790.45 2790.46 9.72 o
15 -11 -13 0.95114 317.76 317.77 1.08 o
15 -11 -10 1.00641 2345.37 2346.62 13.17 o
15 -11 -7 1.05408 2935.38 2927.47 16.43 o
15 -11 -4 1.08879 3381.19 3380.56 19.17 o
15 -11 -1 1.10574 1755.56 1762.54 9.97 o
15 -11 2 1.10229 56.03 56.26 0.32 o
15 -11 5 1.07898 603.41 602.58 3.45 o
15 -11 8 1.03936 765.59 767.05 4.40 o
15 -11 11 0.98858 9001.37 8991.26 48.50 o
15 -11 14 0.93186 1671.74 1671.82 5.21 o
15 -10 -14 0.94301 848.22 848.24 2.75 o
15 -10 -11 1.00191 559.80 561.15 3.19 o
15 -10 -8 1.05489 14080.40 14040.59 78.66 o
15 -10 -5 1.09639 8.65 8.67 0.05 o
15 -10 -2 1.12086 8965.20 8949.32 49.45 o
15 -10 1 1.12450 1.31 1.30 0.01 o
15 -10 4 1.10668 32.86 32.98 0.19 o
15 -10 7 1.07028 279.53 279.13 1.59 o
15 -10 10 1.02049 9159.91 9131.35 52.02 o
15 -10 13 0.96300 4140.44 4139.90 16.45 o
15 -9 -12 0.99136 332.07 331.93 1.82 o
15 -9 -9 1.04846 4998.01 4996.08 28.40 o
15 -9 -6 1.09587 3508.26 3512.68 19.84 o
15 -9 -3 1.12760 2596.48 2587.30 14.09 o
15 -9 0 1.13880 0.15 0.15 0.00 o
15 -9 3 1.12760 347.38 346.16 1.89 o
15 -9 6 1.09587 84.67 84.78 0.48 o
15 -9 9 1.04846 2351.58 2350.67 13.36 o
15 -9 12 0.99136 6145.10 6142.50 33.67 o
15 -8 -13 0.97531 257.05 257.09 1.31 o
15 -8 -10 1.03518 828.18 831.66 4.77 o
15 -8 -7 1.08727 1368.75 1369.03 7.78 o
15 -8 -4 1.12548 5073.60 5058.95 27.68 o
15 -8 -1 1.14424 1269.79 1268.46 6.63 o
15 -8 2 1.14041 24.72 24.66 0.13 o
15 -8 5 1.11466 2883.03 2885.16 16.15 o
15 -8 8 1.07114 1153.59 1151.53 6.55 o
15 -8 11 1.01580 1207.90 1204.39 6.82 o
15 -8 14 0.95456 2568.67 2568.67 8.99 o
15 -7 -14 0.95456 2234.43 2234.43 7.82 o
15 -7 -11 1.01580 1094.09 1090.90 6.18 o
15 -7 -8 1.07114 0.13 0.13 0.00 o
15 -7 -5 1.11466 3774.59 3777.38 21.15 o
15 -7 -2 1.14041 53.96 53.82 0.28 o
15 -7 1 1.14424 143.10 142.95 0.75 o
15 -7 4 1.12548 1659.20 1654.41 9.05 o
15 -7 7 1.08727 1299.49 1299.76 7.39 o
15 -7 10 1.03518 36.33 36.48 0.21 o
15 -7 13 0.97531 238.57 238.60 1.21 o
15 -6 -12 0.99136 6283.50 6280.84 34.43 o
15 -6 -9 1.04846 2731.21 2730.15 15.52 o
15 -6 -6 1.09587 1183.02 1184.51 6.69 o
15 -6 -3 1.12760 609.64 607.49 3.31 o
15 -6 0 1.13880 724.33 722.03 3.81 o
15 -6 3 1.12760 3406.82 3394.78 18.49 o
15 -6 6 1.09587 2546.19 2549.40 14.40 o
15 -6 9 1.04846 4109.01 4107.42 23.35 o
15 -6 12 0.99136 92.54 92.50 0.51 o
15 -5 -13 0.96300 2888.27 2887.89 11.47 o
15 -5 -10 1.02049 8631.25 8604.34 49.02 o
15 -5 -7 1.07028 34.70 34.65 0.20 o
15 -5 -4 1.10668 0.56 0.56 0.00 o
15 -5 -1 1.12450 4.69 4.68 0.03 o
15 -5 2 1.12086 4798.57 4790.08 26.47 o
15 -5 5 1.09639 3704.10 3709.60 20.96 o
15 -5 8 1.05489 6351.95 6333.99 35.49 o
15 -5 11 1.00191 1471.72 1475.29 8.37 o
15 -5 14 0.94301 1096.84 1096.86 3.56 o
15 -4 -14 0.93186 3979.47 3979.67 12.39 o
15 -4 -11 0.98858 4920.09 4914.57 26.51 o
15 -4 -8 1.03936 2.93 2.94 0.02 o
15 -4 -5 1.07898 196.71 196.44 1.12 o
15 -4 -2 1.10229 300.90 302.14 1.71 o
15 -4 1 1.10574 1665.04 1671.65 9.46 o
15 -4 4 1.08879 4725.99 4725.11 26.80 o
15 -4 7 1.05408 5107.88 5094.10 28.59 o
15 -4 10 1.00641 2351.48 2352.73 13.20 o
15 -4 13 0.95114 921.63 921.63 3.14 o
15 -3 -12 0.95404 3352.00 3352.00 11.68 o
15 -3 -9 1.00460 45.75 45.83 0.26 o
15 -3 -6 1.04607 6.96 6.96 0.04 o
15 -3 -3 1.07356 2101.28 2096.90 11.97 o
15 -3 0 1.08322 122.45 122.48 0.70 o
15 -3 3 1.07356 895.30 893.44 5.10 o
15 -3 6 1.04607 2949.31 2949.72 16.83 o
15 -3 9 1.00460 1552.41 1555.22 8.76 o
15 -3 12 0.95404 8.78 8.78 0.03 o
15 -2 -10 0.96743 41.74 41.73 0.19 o
15 -2 -7 1.00954 49.16 49.09 0.28 o
15 -2 -4 1.03991 1929.84 1932.88 11.09 o
15 -2 -1 1.05465 1.11 1.11 0.01 o
15 -2 2 1.05165 3302.96 3297.39 18.62 o
15 -2 5 1.03135 747.10 749.86 4.30 o
15 -2 8 0.99658 420.96 421.75 2.39 o
15 -2 11 0.95156 259.99 259.99 0.89 o
15 -1 -8 0.97084 37.76 37.78 0.19 o
15 -1 -5 1.00289 2303.69 2309.17 13.07 o
15 -1 -2 1.02153 54.01 53.87 0.31 o
15 -1 1 1.02427 7283.55 7277.82 41.53 o
15 -1 4 1.01075 1771.06 1767.36 9.91 o
15 -1 7 0.98280 114.95 114.89 0.61 o
15 -1 10 0.94382 225.28 225.28 0.73 o
15 0 -6 0.96395 3053.72 3053.16 12.48 o
15 0 -3 0.98534 1.45 1.44 0.01 o
15 0 0 0.99279 12953.25 12956.02 71.78 o
15 0 3 0.98534 2160.28 2158.02 11.55 o
15 0 6 0.96395 2142.33 2141.94 8.76 o
16 -15 -5 0.94092 1814.34 1814.38 5.83 o
16 -15 -2 0.95626 4949.43 4949.41 17.63 o
16 -15 1 0.95851 7060.68 7060.58 25.83 o
16 -15 4 0.94740 244.99 245.00 0.81 o
16 -14 -6 0.95795 54.98 54.98 0.20 o
16 -14 -3 0.97893 1418.24 1418.15 7.31 o
16 -14 0 0.98623 6625.72 6618.28 35.48 o
16 -14 3 0.97893 2025.43 2025.32 10.43 o
16 -14 6 0.95795 65.28 65.28 0.24 o
16 -13 -10 0.93265 247.11 247.12 0.77 o
16 -13 -7 0.97020 426.86 426.97 2.08 o
16 -13 -4 0.99707 823.69 825.31 4.69 o
16 -13 -1 1.01004 2896.21 2891.03 16.20 o
16 -13 2 1.00740 912.12 911.91 5.11 o
16 -13 5 0.98952 639.72 639.09 3.46 o
16 -13 8 0.95869 32.37 32.37 0.12 o
16 -12 -11 0.93454 692.12 692.15 2.17 o
16 -12 -8 0.97709 966.79 966.63 4.93 o
16 -12 -5 1.00979 4871.99 4863.85 27.26 o
16 -12 -2 1.02881 34.16 34.23 0.20 o
16 -12 1 1.03162 0.50 0.50 0.00 o
16 -12 4 1.01781 457.81 456.30 2.59 o
16 -12 7 0.98928 81.93 81.85 0.44 o
16 -12 10 0.94956 2120.09 2120.11 7.15 o
16 -11 -12 0.93138 866.13 866.17 2.69 o
16 -11 -9 0.97824 4728.57 4727.95 24.24 o
16 -11 -6 1.01641 1645.90 1640.93 9.30 o
16 -11 -3 1.04157 4802.85 4806.72 27.56 o
16 -11 0 1.05039 78.44 78.35 0.44 o
16 -11 3 1.04157 480.38 480.77 2.76 o
16 -11 6 1.01641 0.01 0.01 0.00 o
16 -11 9 0.97824 1622.28 1622.06 8.32 o
16 -11 12 0.93138 5905.95 5906.25 18.37 o
16 -10 -10 0.97361 2162.84 2164.09 10.96 o
16 -10 -7 1.01657 7656.99 7633.62 43.29 o
16 -10 -4 1.04760 605.72 605.64 3.45 o
16 -10 -1 1.06267 1153.37 1153.98 6.45 o
16 -10 2 1.05960 1449.45 1448.19 8.06 o
16 -10 5 1.03885 34.58 34.66 0.20 o
16 -10 8 1.00335 503.87 505.02 2.86 o
16 -10 11 0.95744 6893.13 6893.08 24.88 o
16 -9 -11 0.96343 526.63 526.55 2.12 o
16 -9 -8 1.01025 2659.65 2654.63 14.88 o
16 -9 -5 1.04652 4988.61 4989.00 28.45 o
16 -9 -2 1.06774 95.61 95.61 0.54 o
16 -9 1 1.07088 2059.78 2056.29 11.70 o
16 -9 4 1.05546 1.12 1.12 0.01 o
16 -9 7 1.02375 5.51 5.51 0.03 o
16 -9 10 0.97991 2161.55 2161.59 11.23 o
16 -8 -12 0.94822 1211.13 1211.14 4.04 o
16 -8 -9 0.99781 522.04 523.11 2.98 o
16 -8 -6 1.03841 1938.27 1943.19 11.15 o
16 -8 -3 1.06529 1067.36 1068.13 6.01 o
16 -8 0 1.07472 32.84 32.77 0.19 o
16 -8 3 1.06529 1.58 1.59 0.01 o
16 -8 6 1.03841 2157.83 2163.30 12.42 o
16 -8 9 0.99781 887.69 889.51 5.06 o
16 -8 12 0.94822 268.70 268.70 0.90 o
16 -7 -10 0.97991 1635.22 1635.25 8.49 o
16 -7 -7 1.02375 56.75 56.69 0.32 o
16 -7 -4 1.05546 1668.34 1663.64 9.31 o
16 -7 -1 1.07088 487.64 486.81 2.77 o
16 -7 2 1.06774 16.92 16.91 0.10 o
16 -7 5 1.04652 1187.84 1187.93 6.77 o
16 -7 8 1.01025 2065.01 2061.12 11.56 o
16 -7 11 0.96343 90.36 90.35 0.36 o
16 -6 -11 0.95744 6996.02 6995.97 25.25 o
16 -6 -8 1.00335 376.64 377.50 2.13 o
16 -6 -5 1.03885 32.08 32.15 0.18 o
16 -6 -2 1.05960 775.89 775.21 4.32 o
16 -6 1 1.06267 94.54 94.59 0.53 o
16 -6 4 1.04760 4258.68 4258.09 24.24 o
16 -6 7 1.01657 3137.30 3127.72 17.74 o
16 -6 10 0.97361 3387.65 3389.62 17.16 o
16 -5 -12 0.93138 3720.24 3720.43 11.57 o
16 -5 -9 0.97824 1418.71 1418.52 7.27 o
16 -5 -6 1.01641 107.14 106.81 0.61 o
16 -5 -3 1.04157 5.70 5.71 0.03 o
16 -5 0 1.05039 4.59 4.58 0.03 o
16 -5 3 1.04157 5273.59 5277.83 30.26 o
16 -5 6 1.01641 3560.02 3549.26 20.12 o
16 -5 9 0.97824 5339.06 5338.36 27.37 o
16 -5 12 0.93138 929.89 929.94 2.89 o
16 -4 -10 0.94956 233.39 233.39 0.79 o
16 -4 -7 0.98928 192.69 192.49 1.04 o
16 -4 -4 1.01781 333.64 332.54 1.89 o
16 -4 -1 1.03162 355.53 356.89 2.05 o
16 -4 2 1.02881 1743.18 1747.07 10.00 o
16 -4 5 1.00979 2513.85 2509.65 14.06 o
16 -4 8 0.97709 5179.60 5178.75 26.41 o
16 -4 11 0.93454 239.69 239.70 0.75 o
16 -3 -8 0.95869 0.01 0.01 0.00 o
16 -3 -5 0.98952 380.15 379.78 2.06 o
16 -3 -2 1.00740 976.81 976.58 5.47 o
16 -3 1 1.01004 126.75 126.52 0.71 o
16 -3 4 0.99707 315.31 315.93 1.79 o
16 -3 7 0.97020 2854.82 2855.57 13.90 o
16 -3 10 0.93265 23.94 23.94 0.07 o
16 -2 -6 0.95795 927.16 927.15 3.37 o
16 -2 -3 0.97893 451.41 451.39 2.33 o
16 -2 0 0.98623 2213.40 2210.91 11.85 o
16 -2 3 0.97893 1482.78 1482.69 7.64 o
16 -2 6 0.95795 516.43 516.42 1.88 o
16 -1 -4 0.94740 433.82 433.83 1.44 o
16 -1 -1 0.95851 4043.68 4043.63 14.80 o
16 -1 2 0.95626 2733.88 2733.87 9.74 o
16 -1 5 0.94092 2272.29 2272.33 7.30 o
17 -14 -2 0.94464 1707.67 1707.70 5.58 o
17 -14 1 0.94682 1601.65 1601.67 5.30 o
17 -14 4 0.93611 1216.65 1216.69 3.84 o
17 -13 -6 0.94060 1799.64 1799.68 5.78 o
17 -13 -3 0.96043 310.15 310.13 1.17 o
17 -13 0 0.96733 790.86 790.68 3.65 o
17 -13 3 0.96043 703.31 703.28 2.65 o
17 -13 6 0.94060 1360.13 1360.16 4.37 o
17 -12 -7 0.94640 1770.43 1770.45 5.84 o
17 -12 -4 0.97128 3859.68 3861.61 19.06 o
17 -12 -1 0.98326 45.53 45.50 0.24 o
17 -12 2 0.98083 0.00 0.00 0.00 o
17 -12 5 0.96430 1089.04 1088.82 4.51 o
17 -12 8 0.93571 1224.68 1224.72 3.86 o
17 -11 -8 0.94699 3939.92 3939.97 13.05 o
17 -11 -5 0.97667 1795.61 1795.38 9.15 o
17 -11 -2 0.99385 509.48 509.86 2.85 o
17 -11 1 0.99638 79.36 79.50 0.45 o
17 -11 4 0.98392 1455.22 1454.04 7.76 o
17 -11 7 0.95808 843.16 843.16 3.07 o
17 -10 -9 0.94233 1690.29 1690.32 5.47 o
17 -10 -6 0.97630 5794.38 5793.93 29.51 o
17 -10 -3 0.99854 498.79 499.83 2.85 o
17 -10 0 1.00629 1042.35 1043.00 5.85 o
17 -10 3 0.99854 381.83 382.63 2.18 o
17 -10 6 0.97630 127.48 127.47 0.65 o
17 -10 9 0.94233 875.15 875.16 2.83 o
17 -9 -10 0.93265 545.10 545.13 1.70 o
17 -9 -7 0.97020 1246.55 1246.88 6.07 o
17 -9 -4 0.99707 938.13 939.97 5.34 o
17 -9 -1 1.01004 630.04 628.91 3.53 o
17 -9 2 1.00740 794.61 794.43 4.45 o
17 -9 5 0.98952 10.17 10.16 0.06 o
17 -9 8 0.95869 144.50 144.50 0.53 o
17 -8 -8 0.95869 118.24 118.24 0.43 o
17 -8 -5 0.98952 575.32 574.75 3.11 o
17 -8 -2 1.00740 23.68 23.68 0.13 o
17 -8 1 1.01004 2.97 2.96 0.02 o
17 -8 4 0.99707 39.39 39.47 0.22 o
17 -8 7 0.97020 1101.59 1101.88 5.36 o
17 -8 10 0.93265 6.73 6.73 0.02 o
17 -7 -9 0.94233 705.03 705.04 2.28 o
17 -7 -6 0.97630 69.12 69.11 0.35 o
17 -7 -3 0.99854 34.43 34.50 0.20 o
17 -7 0 1.00629 257.30 257.46 1.44 o
17 -7 3 0.99854 11.69 11.72 0.07 o
17 -7 6 0.97630 1275.47 1275.37 6.50 o
17 -7 9 0.94233 3156.34 3156.39 10.21 o
17 -6 -7 0.95808 42.01 42.01 0.15 o
17 -6 -4 0.98392 2.07 2.07 0.01 o
17 -6 -1 0.99638 273.39 273.89 1.55 o
17 -6 2 0.99385 150.43 150.54 0.84 o
17 -6 5 0.97667 2407.17 2406.86 12.26 o
17 -6 8 0.94699 4212.31 4212.36 13.95 o
17 -5 -8 0.93571 346.24 346.25 1.09 o
17 -5 -5 0.96430 37.83 37.82 0.16 o
17 -5 -2 0.98083 9.34 9.34 0.05 o
17 -5 1 0.98326 69.71 69.67 0.37 o
17 -5 4 0.97128 1472.77 1473.50 7.27 o
17 -5 7 0.94640 5565.18 5565.25 18.37 o
17 -4 -6 0.94060 168.88 168.88 0.54 o
17 -4 -3 0.96043 14.99 14.99 0.06 o
17 -4 0 0.96733 486.22 486.11 2.24 o
17 -4 3 0.96043 339.42 339.40 1.28 o
17 -4 6 0.94060 4134.91 4135.00 13.27 o
17 -3 -4 0.93611 254.71 254.72 0.80 o
17 -3 -1 0.94682 2121.06 2121.09 7.02 o
17 -3 2 0.94464 209.80 209.81 0.69 o
18 -12 -3 0.93180 229.51 229.52 0.71 o
18 -12 0 0.93809 22.45 22.45 0.07 o
18 -12 3 0.93180 290.48 290.49 0.90 o
18 -11 -4 0.93611 148.47 148.47 0.47 o
18 -11 -1 0.94682 179.62 179.62 0.59 o
18 -11 2 0.94464 86.59 86.59 0.28 o
18 -10 -5 0.93534 640.04 640.06 2.01 o
18 -10 -2 0.95040 1721.84 1721.85 5.83 o
18 -10 1 0.95261 0.12 0.12 0.00 o
18 -10 4 0.94170 88.98 88.98 0.29 o
18 -9 -3 0.94867 47.33 47.33 0.16 o
18 -9 0 0.95531 1890.10 1890.10 6.67 o
18 -9 3 0.94867 41.75 41.75 0.14 o
18 -8 -4 0.94170 194.17 194.18 0.63 o
18 -8 -1 0.95261 157.25 157.25 0.54 o
18 -8 2 0.95040 705.74 705.75 2.39 o
18 -8 5 0.93534 1.00 1.00 0.00 o
18 -7 -2 0.94464 82.68 82.68 0.27 o
18 -7 1 0.94682 26.59 26.59 0.09 o
18 -7 4 0.93611 7.37 7.37 0.02 o
18 -6 -3 0.93180 0.10 0.10 0.00 o
18 -6 0 0.93809 11.35 11.35 0.04 o
18 -6 3 0.93180 3.38 3.38 0.01
o#--eof--eof--eof--eof--eof--eof--eof--eof--eof--eof--eof--eof--eof--eof--eof--#

_chemical_name_systematic        'MOF-5(C7)_desolvated phase'
_exptl_crystal_colour            White
_exptl_crystal_description       Powder
_chemical_melting_point          ?
_exptl_crystal_recrystallization_method 'Solvothermal synthesis'
_refine_special_details          'Rietveld refinement - TOPAS'


