####################################################################### 
# 
# This file contains crystal structure data downloaded from the 
# Cambridge Structural Database (CSD) hosted by the Cambridge 
# Crystallographic Data Centre (CCDC).
# 
# Full information about CCDC data access policies and citation 
# guidelines are available at http://www.ccdc.cam.ac.uk/access/V1 
# 
# Audit and citation data items may have been added by the CCDC. 
# Please retain this information to preserve the provenance of 
# this file and to allow appropriate attribution of the data. 
# 
#######################################################################

data_bmo2852m
_audit_block_doi                 10.5517/ccdc.csd.cc1lrypz
_database_code_depnum_ccdc_archive 'CCDC 1482782'
_audit_update_record             
;
2016-05-31 deposited with the CCDC.	2021-02-17 downloaded from the CCDC.
;

_audit_creation_method           SHELXL-2014/7
_shelx_SHELXL_version_number     2014/7
_chemical_name_systematic        ?
_chemical_name_common            ?
_chemical_melting_point          ?
_chemical_formula_moiety         ?
_chemical_formula_sum            'C10 H14 Cl2 Cu N4'
_chemical_formula_weight         324.69

loop_
_atom_type_symbol
_atom_type_description
_atom_type_scat_dispersion_real
_atom_type_scat_dispersion_imag
_atom_type_scat_source
C C 0.0033 0.0016 'International Tables Vol C Tables 4.2.6.8 and 6.1.1.4'
H H 0.0000 0.0000 'International Tables Vol C Tables 4.2.6.8 and 6.1.1.4'
N N 0.0061 0.0033 'International Tables Vol C Tables 4.2.6.8 and 6.1.1.4'
Cl Cl 0.1484 0.1585 'International Tables Vol C Tables 4.2.6.8 and 6.1.1.4'
Cu Cu 0.3201 1.2651 'International Tables Vol C Tables 4.2.6.8 and 6.1.1.4'

_space_group_crystal_system      orthorhombic
_space_group_IT_number           33
_space_group_name_H-M_alt        'P n a 21'
_space_group_name_Hall           'P 2c -2n'

_shelx_space_group_comment       
;
The symmetry employed for this shelxl refinement is uniquely defined
by the following loop, which should always be used as a source of
symmetry information in preference to the above space-group names.
They are only intended as comments.
;

loop_
_space_group_symop_operation_xyz
'x, y, z'
'-x, -y, z+1/2'
'x+1/2, -y+1/2, z'
'-x+1/2, y+1/2, z+1/2'

_cell_length_a                   14.9245(4)
_cell_length_b                   9.5062(3)
_cell_length_c                   9.7578(3)
_cell_angle_alpha                90
_cell_angle_beta                 90
_cell_angle_gamma                90
_cell_volume                     1384.39(7)
_cell_formula_units_Z            4
_cell_measurement_temperature    130(2)
_cell_measurement_reflns_used    2654
_cell_measurement_theta_min      4.16
_cell_measurement_theta_max      28.57

_exptl_crystal_description       plate
_exptl_crystal_colour            blue
_exptl_crystal_density_meas      ?
_exptl_crystal_density_method    ?
_exptl_crystal_density_diffrn    1.558
_exptl_crystal_F_000             660
_exptl_transmission_factor_min   ?
_exptl_transmission_factor_max   ?
_exptl_crystal_size_max          0.20
_exptl_crystal_size_mid          0.12
_exptl_crystal_size_min          0.09
_exptl_absorpt_coefficient_mu    1.947
_shelx_estimated_absorpt_T_min   0.697
_shelx_estimated_absorpt_T_max   0.844
_exptl_absorpt_correction_type   multi-scan
_exptl_absorpt_correction_T_min  0.98785
_exptl_absorpt_correction_T_max  1.00000
_exptl_absorpt_process_details   
;
CrysAlisPro 1.171.38.41 (Rigaku Oxford Diffraction, 2015)
Empirical absorption correction using spherical harmonics,
implemented in SCALE3 ABSPACK scaling algorithm.
;
_exptl_absorpt_special_details   ?

_diffrn_radiation_probe          x-ray
_diffrn_radiation_source         'fine-focus sealed tube'
_diffrn_radiation_monochromator  graphite
_diffrn_measurement_device       'four-circle diffractometer'
_diffrn_detector                 'CCD plate'
_diffrn_detector_type            AtlasS2
_diffrn_ambient_temperature      130(2)
_diffrn_radiation_wavelength     0.71073
_diffrn_radiation_type           MoK\a
_diffrn_source                   'sealed X-ray tube'
_diffrn_measurement_device_type  'New Xcalibur, AtlasS2'
_diffrn_measurement_method       '\w scans'
_diffrn_detector_area_resol_mean 10.6168
_diffrn_reflns_number            4284
_diffrn_reflns_av_unetI/netI     0.0300
_diffrn_reflns_av_R_equivalents  0.0176
_diffrn_reflns_limit_h_min       -20
_diffrn_reflns_limit_h_max       12
_diffrn_reflns_limit_k_min       -11
_diffrn_reflns_limit_k_max       12
_diffrn_reflns_limit_l_min       -12
_diffrn_reflns_limit_l_max       8
_diffrn_reflns_theta_min         3.289
_diffrn_reflns_theta_max         28.994
_diffrn_reflns_theta_full        25.500
_diffrn_measured_fraction_theta_max 0.846
_diffrn_measured_fraction_theta_full 0.998
_diffrn_reflns_Laue_measured_fraction_max 0.846
_diffrn_reflns_Laue_measured_fraction_full 0.998
_diffrn_reflns_point_group_measured_fraction_max 0.844
_diffrn_reflns_point_group_measured_fraction_full 0.998
_reflns_number_total             2433
_reflns_number_gt                2312
_reflns_threshold_expression     >2\s(I)
_reflns_Friedel_coverage         0.890
_reflns_Friedel_fraction_max     0.842
_reflns_Friedel_fraction_full    0.999

_reflns_special_details          
;
 Reflections were merged by SHELXL according to the crystal
 class for the calculation of statistics and refinement.
 
 _reflns_Friedel_fraction is defined as the number of unique
 Friedel pairs measured divided by the number that would be
 possible theoretically, ignoring centric projections and
 systematic absences.
;
_computing_data_collection       'CrysAlisPro 1.171.38.41 (Rigaku OD, 2015)'
_computing_cell_refinement       'CrysAlisPro 1.171.38.41 (Rigaku OD, 2015)'
_computing_data_reduction        'CrysAlisPro 1.171.38.41 (Rigaku OD, 2015)'
_computing_structure_solution    'SHELXS-2014 (Sheldrick, 2014)'
_computing_structure_refinement  'SHELXL-2014 (Sheldrick, 2014)'
_computing_molecular_graphics    'ShelXle (H\"ubschle, 2011)'
_computing_publication_material  'CIFTAB-2014 (Sheldrick, 2014)'

_refine_special_details          
;
 Refined as a 2-component inversion twin.
;
_refine_ls_structure_factor_coef Fsqd
_refine_ls_matrix_type           full
_refine_ls_weighting_scheme      calc
_refine_ls_weighting_details     
'w=1/[\s^2^(Fo^2^)+(0.0359P)^2^+0.0670P] where P=(Fo^2^+2Fc^2^)/3'
_atom_sites_solution_primary     direct
_atom_sites_solution_secondary   difmap
_atom_sites_solution_hydrogens   geom
_refine_ls_hydrogen_treatment    constr
_refine_ls_extinction_method     none
_refine_ls_extinction_coef       .
_refine_ls_abs_structure_details 
;
 Refined as an inversion twin.
;
_refine_ls_abs_structure_Flack   0.457(17)
_chemical_absolute_configuration ad
_refine_ls_number_reflns         2433
_refine_ls_number_parameters     155
_refine_ls_number_restraints     1
_refine_ls_R_factor_all          0.0289
_refine_ls_R_factor_gt           0.0264
_refine_ls_wR_factor_ref         0.0650
_refine_ls_wR_factor_gt          0.0636
_refine_ls_goodness_of_fit_ref   1.090
_refine_ls_restrained_S_all      1.089
_refine_ls_shift/su_max          0.001
_refine_ls_shift/su_mean         0.000

loop_
_atom_site_label
_atom_site_type_symbol
_atom_site_fract_x
_atom_site_fract_y
_atom_site_fract_z
_atom_site_U_iso_or_equiv
_atom_site_adp_type
_atom_site_occupancy
_atom_site_site_symmetry_order
_atom_site_calc_flag
_atom_site_refinement_flags_posn
_atom_site_refinement_flags_adp
_atom_site_refinement_flags_occupancy
_atom_site_disorder_assembly
_atom_site_disorder_group
Cu1 Cu 0.76650(3) 0.82012(4) 0.85834(5) 0.01785(13) Uani 1 1 d . . . . .
Cl1 Cl 0.88539(6) 0.71301(10) 0.75745(10) 0.0221(2) Uani 1 1 d . . . . .
Cl2 Cl 0.63901(6) 0.77696(11) 0.97602(10) 0.0243(2) Uani 1 1 d . . . . .
N1 N 0.7064(2) 0.8618(3) 0.6853(3) 0.0208(7) Uani 1 1 d . . . . .
N2 N 0.6046(2) 0.9066(3) 0.5285(3) 0.0217(7) Uani 1 1 d . . . . .
N3 N 0.4377(2) 0.5737(3) 0.1723(3) 0.0207(7) Uani 1 1 d . . . . .
N4 N 0.3327(2) 0.6164(3) 0.0191(4) 0.0203(7) Uani 1 1 d . . . . .
C1 C 0.6192(2) 0.8668(4) 0.6588(4) 0.0198(8) Uani 1 1 d . . . . .
H1 H 0.5734 0.8453 0.7231 0.024 Uiso 1 1 calc R U . . .
C2 C 0.7485(3) 0.8975(6) 0.5635(5) 0.0369(12) Uani 1 1 d . . . . .
H2 H 0.8115 0.9012 0.5499 0.044 Uiso 1 1 calc R U . . .
C3 C 0.6868(3) 0.9259(5) 0.4678(5) 0.0368(11) Uani 1 1 d . . . . .
H3 H 0.6977 0.9538 0.3758 0.044 Uiso 1 1 calc R U . . .
C4 C 0.5164(2) 0.9208(4) 0.4633(4) 0.0224(8) Uani 1 1 d . . . . .
H4A H 0.5070 1.0200 0.4360 0.027 Uiso 1 1 calc R U . . .
H4B H 0.4692 0.8954 0.5301 0.027 Uiso 1 1 calc R U . . .
C5 C 0.5083(3) 0.8263(4) 0.3372(4) 0.0214(9) Uani 1 1 d . . . . .
H5A H 0.4485 0.8402 0.2953 0.026 Uiso 1 1 calc R U . . .
H5B H 0.5539 0.8550 0.2690 0.026 Uiso 1 1 calc R U . . .
C6 C 0.5207(3) 0.6705(4) 0.3701(6) 0.0248(9) Uani 1 1 d . . . . .
H6A H 0.5773 0.6586 0.4217 0.030 Uiso 1 1 calc R U . . .
H6B H 0.4710 0.6395 0.4301 0.030 Uiso 1 1 calc R U . . .
C7 C 0.5233(3) 0.5771(4) 0.2450(4) 0.0238(9) Uani 1 1 d . . . . .
H7A H 0.5705 0.6113 0.1819 0.029 Uiso 1 1 calc R U . . .
H7B H 0.5394 0.4803 0.2733 0.029 Uiso 1 1 calc R U . . .
C8 C 0.4163(2) 0.6427(4) 0.0560(4) 0.0190(8) Uani 1 1 d . . . . .
H8 H 0.4560 0.7025 0.0070 0.023 Uiso 1 1 calc R U . . .
C9 C 0.3637(3) 0.4976(5) 0.2107(5) 0.0287(10) Uani 1 1 d . . . . .
H9 H 0.3585 0.4378 0.2883 0.034 Uiso 1 1 calc R U . . .
C10 C 0.2997(3) 0.5246(4) 0.1167(4) 0.0266(9) Uani 1 1 d . . . . .
H10 H 0.2409 0.4863 0.1174 0.032 Uiso 1 1 calc R U . . .

loop_
_atom_site_aniso_label
_atom_site_aniso_U_11
_atom_site_aniso_U_22
_atom_site_aniso_U_33
_atom_site_aniso_U_23
_atom_site_aniso_U_13
_atom_site_aniso_U_12
Cu1 0.0151(2) 0.0237(2) 0.0148(2) -0.0022(2) -0.0010(2) -0.00004(17)
Cl1 0.0178(4) 0.0277(4) 0.0209(5) -0.0053(4) 0.0022(4) 0.0017(4)
Cl2 0.0169(4) 0.0370(5) 0.0192(5) -0.0016(5) 0.0031(4) 0.0001(4)
N1 0.0170(15) 0.0271(16) 0.0182(18) 0.0001(15) -0.0011(14) -0.0056(14)
N2 0.0227(16) 0.0255(16) 0.0168(18) 0.0033(14) -0.0028(14) -0.0029(14)
N3 0.0220(16) 0.0206(15) 0.0196(19) 0.0032(14) -0.0032(14) 0.0011(13)
N4 0.0185(16) 0.0247(16) 0.0178(17) 0.0036(15) -0.0008(14) 0.0001(14)
C1 0.0189(19) 0.0241(19) 0.017(2) -0.0011(18) -0.0006(16) -0.0004(16)
C2 0.022(2) 0.061(3) 0.027(3) 0.019(3) 0.001(2) -0.005(2)
C3 0.023(2) 0.061(3) 0.026(2) 0.018(2) 0.000(2) -0.007(2)
C4 0.0237(19) 0.0250(19) 0.018(2) 0.0017(18) -0.0050(18) 0.0030(15)
C5 0.0241(18) 0.0242(17) 0.016(3) 0.0033(17) -0.0058(18) 0.0007(15)
C6 0.0271(18) 0.0250(17) 0.022(2) 0.005(2) -0.010(2) -0.0008(15)
C7 0.0253(19) 0.0251(18) 0.021(2) 0.0011(18) -0.0081(18) 0.0041(16)
C8 0.0196(18) 0.0197(17) 0.018(2) 0.0011(16) -0.0026(17) -0.0006(15)
C9 0.033(2) 0.034(2) 0.019(2) 0.0059(18) 0.0000(18) -0.0067(19)
C10 0.023(2) 0.033(2) 0.024(2) 0.0063(19) -0.0012(17) -0.0080(19)

_geom_special_details            
;
 All esds (except the esd in the dihedral angle between two l.s. planes)
 are estimated using the full covariance matrix.  The cell esds are taken
 into account individually in the estimation of esds in distances, angles
 and torsion angles; correlations between esds in cell parameters are only
 used when they are defined by crystal symmetry.  An approximate (isotropic)
 treatment of cell esds is used for estimating esds involving l.s. planes.
;

loop_
_geom_bond_atom_site_label_1
_geom_bond_atom_site_label_2
_geom_bond_distance
_geom_bond_site_symmetry_2
_geom_bond_publ_flag
Cu1 Cl1 2.2702(10) . yes
Cu1 Cl2 2.2600(10) . yes
Cu1 N1 1.952(3) . yes
Cu1 N4 1.950(3) 3_566 yes
N1 C1 1.329(5) . ?
N1 C2 1.387(5) . ?
N2 C1 1.344(5) . ?
N2 C3 1.375(5) . ?
N2 C4 1.468(5) . ?
N3 C7 1.462(5) . ?
N3 C8 1.349(5) . ?
N3 C9 1.373(5) . ?
N4 Cu1 1.950(3) 3_464 ?
N4 C8 1.321(5) . ?
N4 C10 1.383(5) . ?
C1 H1 0.9500 . ?
C2 H2 0.9500 . ?
C2 C3 1.339(6) . ?
C3 H3 0.9500 . ?
C4 H4A 0.9900 . ?
C4 H4B 0.9900 . ?
C4 C5 1.529(5) . ?
C5 H5A 0.9900 . ?
C5 H5B 0.9900 . ?
C5 C6 1.526(5) . ?
C6 H6A 0.9900 . ?
C6 H6B 0.9900 . ?
C6 C7 1.510(6) . ?
C7 H7A 0.9900 . ?
C7 H7B 0.9900 . ?
C8 H8 0.9500 . ?
C9 H9 0.9500 . ?
C9 C10 1.348(6) . ?
C10 H10 0.9500 . ?

loop_
_geom_angle_atom_site_label_1
_geom_angle_atom_site_label_2
_geom_angle_atom_site_label_3
_geom_angle
_geom_angle_site_symmetry_1
_geom_angle_site_symmetry_3
_geom_angle_publ_flag
Cl2 Cu1 Cl1 142.84(4) . . yes
N1 Cu1 Cl1 94.29(10) . . yes
N1 Cu1 Cl2 95.15(10) . . yes
N4 Cu1 Cl1 95.24(9) 3_566 . yes
N4 Cu1 Cl2 94.26(10) 3_566 . yes
N4 Cu1 N1 149.97(13) 3_566 . yes
C1 N1 Cu1 128.7(3) . . ?
C1 N1 C2 105.6(3) . . ?
C2 N1 Cu1 125.7(3) . . ?
C1 N2 C3 107.5(3) . . ?
C1 N2 C4 125.5(3) . . ?
C3 N2 C4 126.9(3) . . ?
C8 N3 C7 127.2(3) . . ?
C8 N3 C9 107.2(3) . . ?
C9 N3 C7 125.6(3) . . ?
C8 N4 Cu1 129.7(3) . 3_464 ?
C8 N4 C10 105.6(3) . . ?
C10 N4 Cu1 124.7(3) . 3_464 ?
N1 C1 N2 110.7(3) . . ?
N1 C1 H1 124.7 . . ?
N2 C1 H1 124.7 . . ?
N1 C2 H2 125.2 . . ?
C3 C2 N1 109.6(4) . . ?
C3 C2 H2 125.2 . . ?
N2 C3 H3 126.7 . . ?
C2 C3 N2 106.7(4) . . ?
C2 C3 H3 126.7 . . ?
N2 C4 H4A 109.3 . . ?
N2 C4 H4B 109.3 . . ?
N2 C4 C5 111.5(3) . . ?
H4A C4 H4B 108.0 . . ?
C5 C4 H4A 109.3 . . ?
C5 C4 H4B 109.3 . . ?
C4 C5 H5A 109.0 . . ?
C4 C5 H5B 109.0 . . ?
H5A C5 H5B 107.8 . . ?
C6 C5 C4 113.0(3) . . ?
C6 C5 H5A 109.0 . . ?
C6 C5 H5B 109.0 . . ?
C5 C6 H6A 108.8 . . ?
C5 C6 H6B 108.8 . . ?
H6A C6 H6B 107.7 . . ?
C7 C6 C5 113.8(4) . . ?
C7 C6 H6A 108.8 . . ?
C7 C6 H6B 108.8 . . ?
N3 C7 C6 112.5(3) . . ?
N3 C7 H7A 109.1 . . ?
N3 C7 H7B 109.1 . . ?
C6 C7 H7A 109.1 . . ?
C6 C7 H7B 109.1 . . ?
H7A C7 H7B 107.8 . . ?
N3 C8 H8 124.4 . . ?
N4 C8 N3 111.1(3) . . ?
N4 C8 H8 124.4 . . ?
N3 C9 H9 126.8 . . ?
C10 C9 N3 106.5(4) . . ?
C10 C9 H9 126.8 . . ?
N4 C10 H10 125.2 . . ?
C9 C10 N4 109.7(3) . . ?
C9 C10 H10 125.2 . . ?

_refine_diff_density_max         0.592
_refine_diff_density_min         -0.359
_refine_diff_density_rms         0.070

_shelx_res_file                  
;
 
    bmo2852m.res created by SHELXL-2014/7
 
 
TITL bmo2852m in Pna2(1); 130K; Xcalibur
CELL  0.71073  14.9245   9.5062   9.7578   90.000   90.000   90.000
ZERR    4.000   0.0004   0.0003   0.0003    0.000    0.000    0.000
LATT -1
SYMM -X, -Y, 1/2+Z
SYMM 1/2+X, 1/2-Y, Z
SYMM 1/2-X, 1/2+Y, 1/2+Z
SFAC C  H  N  Cl CU
UNIT 40 56 16 8  4
 
LIST 4 ! automatically inserted. Change 6 to 4 for CHECKCIF!!
TEMP -143
 
L.S. 6
BOND $H
FMAP 2
PLAN 5
 
TWIN
 
ACTA 51
SIZE 0.20 0.12 0.09
 
WGHT    0.035900    0.067000
BASF   0.45696
FVAR       3.12786
CU1   5    0.766505    0.820118    0.858338    11.00000    0.01509    0.02370 =
         0.01475   -0.00216   -0.00104   -0.00004
CL1   4    0.885390    0.713014    0.757453    11.00000    0.01781    0.02768 =
         0.02094   -0.00528    0.00224    0.00167
CL2   4    0.639010    0.776957    0.976021    11.00000    0.01687    0.03695 =
         0.01917   -0.00160    0.00308    0.00011
N1    3    0.706449    0.861803    0.685327    11.00000    0.01705    0.02705 =
         0.01819    0.00007   -0.00106   -0.00564
N2    3    0.604575    0.906639    0.528541    11.00000    0.02270    0.02550 =
         0.01682    0.00327   -0.00281   -0.00288
N3    3    0.437731    0.573675    0.172257    11.00000    0.02201    0.02059 =
         0.01956    0.00323   -0.00322    0.00114
N4    3    0.332748    0.616406    0.019113    11.00000    0.01850    0.02470 =
         0.01783    0.00356   -0.00082    0.00012
C1    1    0.619177    0.866830    0.658844    11.00000    0.01893    0.02406 =
         0.01656   -0.00106   -0.00063   -0.00039
AFIX  43
H1    2    0.573397    0.845259    0.723142    11.00000   -1.20000
AFIX   0
C2    1    0.748502    0.897482    0.563465    11.00000    0.02248    0.06103 =
         0.02715    0.01941    0.00093   -0.00525
AFIX  43
H2    2    0.811491    0.901222    0.549918    11.00000   -1.20000
AFIX   0
C3    1    0.686778    0.925851    0.467817    11.00000    0.02339    0.06113 =
         0.02585    0.01819   -0.00045   -0.00699
AFIX  43
H3    2    0.697673    0.953823    0.375848    11.00000   -1.20000
AFIX   0
C4    1    0.516411    0.920760    0.463339    11.00000    0.02372    0.02496 =
         0.01841    0.00168   -0.00498    0.00303
AFIX  23
H4A   2    0.507020    1.019951    0.435965    11.00000   -1.20000
H4B   2    0.469159    0.895414    0.530127    11.00000   -1.20000
AFIX   0
C5    1    0.508322    0.826309    0.337172    11.00000    0.02414    0.02421 =
         0.01597    0.00331   -0.00582    0.00075
AFIX  23
H5A   2    0.448543    0.840165    0.295321    11.00000   -1.20000
H5B   2    0.553902    0.855014    0.268970    11.00000   -1.20000
AFIX   0
C6    1    0.520745    0.670546    0.370060    11.00000    0.02714    0.02504 =
         0.02210    0.00489   -0.00986   -0.00085
AFIX  23
H6A   2    0.577325    0.658573    0.421719    11.00000   -1.20000
H6B   2    0.471047    0.639544    0.430089    11.00000   -1.20000
AFIX   0
C7    1    0.523322    0.577095    0.244972    11.00000    0.02531    0.02507 =
         0.02109    0.00114   -0.00807    0.00413
AFIX  23
H7A   2    0.570490    0.611333    0.181914    11.00000   -1.20000
H7B   2    0.539427    0.480342    0.273296    11.00000   -1.20000
AFIX   0
C8    1    0.416264    0.642726    0.055978    11.00000    0.01959    0.01973 =
         0.01774    0.00110   -0.00261   -0.00063
AFIX  43
H8    2    0.456009    0.702459    0.007021    11.00000   -1.20000
AFIX   0
C9    1    0.363686    0.497599    0.210735    11.00000    0.03259    0.03417 =
         0.01945    0.00586    0.00000   -0.00673
AFIX  43
H9    2    0.358526    0.437756    0.288307    11.00000   -1.20000
AFIX   0
C10   1    0.299737    0.524564    0.116724    11.00000    0.02299    0.03307 =
         0.02370    0.00634   -0.00125   -0.00804
AFIX  43
H10   2    0.240940    0.486284    0.117439    11.00000   -1.20000
AFIX   0
HKLF 4
 
REM  bmo2852m in Pna2(1); 130K; Xcalibur
REM R1 =  0.0264 for    2312 Fo > 4sig(Fo)  and  0.0289 for all    2433 data
REM    155 parameters refined using      1 restraints
 
END
 
WGHT      0.0359      0.0670
 
REM Highest difference peak  0.592,  deepest hole -0.359,  1-sigma level  0.070
Q1    1   0.2413  0.4116 -0.1309  11.00000  0.05    0.59
Q2    1   0.2763  0.8301  0.2648  11.00000  0.05    0.40
Q3    1   0.7254  0.6031  0.2982  11.00000  0.05    0.39
Q4    1   0.5904  0.7739  0.9649  11.00000  0.05    0.34
Q5    1   0.6036  0.6908  0.9777  11.00000  0.05    0.32
;
_shelx_res_checksum              97510

_shelx_hkl_file                  
;
   0   0 -11 49.9612 134.357   2
   0   0 -10 74696.8 1694.99   2
   0   0  -9 42.0537 123.585   2
   0   0  -8 60449.6 1331.34   2
   0   0  -7 120.922 89.3602   2
   0   0  -6 66085.5 1249.42   2
   0   0  -5 116.632 83.3239   2
   0   0  -4 5444.78 254.664   2
   0   0  -3-2.57125 76.5244   2
   0   0  -2 41309.8 631.527   2
   0   0   2 41062.0 627.663   2
   0   0   3 129.710 66.8876   2
   0   0   4 5881.58 262.112   2
   0   0   5 19.6786 64.6845   2
   0   0   6 67876.9 1271.73   2
   0   0   7-45.4520 78.7247   2
   0   1 -11 14681.8 754.242   2
   0   1 -10-143.560 135.978   2
   0  -1  -9 47291.4 1214.08   2
   0   1  -9 48086.3 1241.50   2
   0   1  -8 55.3272 105.809   2
   0  -1  -8 46.4547 91.6187   2
   0  -1  -7 28392.4 796.708   2
   0   1  -7 29230.5 824.198   2
   0  -1  -6 16.0779 79.9660   2
   0   1  -6 15.7360 86.1219   2
   0   1  -5 3452.09 235.016   2
   0  -1  -5 3109.33 216.101   2
   0  -1  -4 31.0426 75.7624   2
   0   1  -4 22.0007 70.6943   2
   0   1  -3 794.386 113.414   2
   0  -1  -3 584.944 93.8383   2
   0   1  -2-49.0543 68.8874   2
   0  -1   2-22.6561 56.0845   2
   0   1   2 21.1547 47.4880   2
   0  -1   3 535.690 86.1905   2
   0   1   3 606.758 87.2942   2
   0   1   4 0.32946 60.2188   2
   0  -1   4-22.8482 72.3270   2
   0   1   5 2983.30 206.327   2
   0  -1   5 2871.72 215.349   2
   0   1   6-96.3564 85.2257   2
   0  -1   6-31.1031 78.3867   2
   0  -1   7 30678.1 845.285   2
   0   1   7 31571.3 837.198   2
   0   2 -11 20.7763 154.792   2
   0   2 -10 30084.2 1030.78   2
   0   2  -9 42.2978 127.065   2
   0   2  -8 33064.0 957.897   2
   0   2  -7-195.868 126.015   2
   0   2  -6 6448.45 349.987   2
   0   2  -5-56.8828 84.1520   2
   0   2  -4 8326.38 337.269   2
   0   2  -3-41.0465 80.7098   2
   0   2  -2 165150. 2043.60   2
   0   2  -1 23.2424 55.5541   2
   0  -2   0 92313.4 1080.90   1
   0  -2   1 85.9045 51.5022   2
   0   2   1-6.55002 37.4729   1
   0  -2   2 163845. 2025.59   2
   0  -2   3-29.1367 58.5290   2
   0   2   3 35.5455 60.0002   2
   0   2   4 8241.19 307.759   2
   0  -2   4 8589.82 338.252   2
   0  -2   5-83.3553 86.0084   2
   0   2   5-26.1116 68.3174   2
   0  -2   6 6211.37 340.888   2
   0   2   6 6799.42 340.966   2
   0   2   7 49.4089 81.2147   2
   0   3 -11 4039.95 408.460   2
   0   3 -10 108.740 126.832   2
   0   3  -9 31014.0 1002.83   2
   0   3  -8-35.4239 119.213   2
   0   3  -7 2046.32 236.185   2
   0   3  -6 165.106 112.847   2
   0   3  -5 21710.9 627.737   2
   0   3  -4 79.7085 74.5731   2
   0   3  -3 19355.2 500.555   2
   0   3  -2 115.491 75.5354   2
   0   3  -1 168616. 2071.54   2
   0  -3   0 34.9451 37.9298   1
   0   3   1 162253. 1906.33   1
   0  -3   2 121.434 70.5830   2
   0  -3   3 19628.7 506.032   2
   0  -3   4 33.1828 71.8878   2
   0   3   4-69.1057 62.3811   2
   0  -3   5 20948.8 614.493   2
   0   3   5 21109.3 577.472   2
   0   3   6 142.518 83.8874   2
   0  -3   6 25.7052 68.5309   2
   0   3   7 2271.63 217.583   2
   0   4 -11-9.17886 133.197   2
   0   4 -10 1878.49 280.106   2
   0   4  -9 102.187 122.222   2
   0   4  -8 12542.7 601.402   2
   0   4  -7 198.033 128.566   2
   0   4  -6 31738.1 861.375   2
   0   4  -5 135.181 104.253   2
   0   4  -4 20857.1 594.308   2
   0   4  -3 30.7993 75.4574   2
   0   4  -2 5375.83 246.545   2
   0   4  -1-52.5140 61.0783   2
   0  -4   0 21648.9 393.743   1
   0   4   1 53.5430 42.4606   1
   0   4   2 5324.66 205.029   1
   0  -4   3 14.4723 66.5206   2
   0  -4   4 19949.7 585.239   2
   0  -4   5-44.4696 80.3083   2
   0   4   5 16.0967 67.3082   2
   0   4   6 33172.6 826.200   2
   0   4   7 24.0370 73.5370   2
   0   5 -10 246.720 126.577   2
   0   5  -9 431.143 156.310   2
   0   5  -8 168.433 126.929   2
   0   5  -7 1764.14 242.463   2
   0   5  -6 62.7394 95.3069   2
   0   5  -5 47298.3 1068.89   2
   0   5  -4 63.6487 85.4514   2
   0   5  -3 878.084 134.045   2
   0   5  -2 129.610 70.8804   2
   0   5  -1 11462.6 372.652   2
   0  -5   0-2.82817 39.5852   1
   0   5   2-42.7480 52.6363   1
   0   5   3 1110.83 119.007   1
   0   5   4 30.4426 57.2592   1
   0  -5   4-66.6639 84.2045   2
   0  -5   5 49656.8 1105.46   2
   0   5   5 49370.8 1015.23   2
   0   5   6-80.6108 72.8418   2
   0   6 -10 1492.84 267.354   2
   0   6  -9-222.443 153.437   2
   0   6  -8 7823.03 499.846   2
   0   6  -7 120.127 106.740   2
   0   6  -6 28758.9 871.414   2
   0   6  -5-22.9429 85.7331   2
   0   6  -4 85799.8 1532.51   2
   0   6  -3 76.8365 77.5948   2
   0   6  -2 50903.4 1001.83   2
   0   6  -1-53.9930 77.1868   2
   0  -6   0 9702.76 278.087   1
   0  -6   1 10.6165 42.0909   1
   0   6   2 48859.7 836.279   1
   0   6   3 20.6108 54.1280   1
   0   6   4 84562.4 1378.28   1
   0   6   5-24.5028 71.1940   1
   0   6   5-51.5054 81.5374   2
   0   6   6 27946.2 778.256   1
   0   6   6 28255.9 788.722   2
   0   7  -9 5515.97 466.367   2
   0   7  -8-60.6709 143.854   2
   0   7  -7 6186.14 437.194   2
   0   7  -6 123.067 114.686   2
   0   7  -5 15958.9 629.839   2
   0   7  -4-3.90982 82.6576   2
   0   7  -3 21945.2 669.511   2
   0   7  -2 3.85645 90.1367   2
   0   7  -1 17315.2 543.060   2
   0  -7   0-3.27279 40.7445   1
   0  -7   1 17288.8 422.808   1
   0   7   3 20507.0 535.158   1
   0   7   4-60.6444 73.8174   1
   0   7   5 16060.3 542.709   1
   0   7   6-33.6156 81.8511   1
   0   8  -9 16.9874 153.545   2
   0   8  -8 12772.7 682.575   2
   0   8  -7-69.5529 134.720   2
   0   8  -6 4267.47 364.757   2
   0   8  -5 32.7905 103.077   2
   0   8  -4 15322.4 606.380   2
   0   8  -3-35.8850 83.2800   2
   0   8  -2 40730.3 969.978   2
   0   8  -1-80.6840 104.692   2
   0  -8   0 15324.8 397.727   1
   0   8   0 16261.9 543.011   2
   0  -8   1 32.6614 43.1413   1
   0  -8   2 39418.9 768.089   1
   0   8   4 15433.6 503.546   1
   0   8   5-138.107 87.7514   1
   0   9  -8-108.866 153.648   2
   0   9  -7 5112.47 429.478   2
   0   9  -6 5.55400 120.202   2
   0   9  -5 444.434 149.338   2
   0   9  -4-38.0801 101.489   2
   0   9  -3 22462.8 757.939   2
   0   9  -2-4.52701 98.2345   2
   0   9  -1 2059.09 215.304   2
   0   9   0 17.2519 85.7038   2
   0  -9   1 2439.22 159.182   1
   0  -9   2-32.6412 62.3847   1
   0  -9   3 21270.3 572.137   1
   0  10  -7-4.27177 116.725   2
   0  10  -6 511.308 177.008   2
   0  10  -5-52.2169 128.986   2
   0  10  -4 1765.71 246.845   2
   0  10  -3 44.2236 117.687   2
   0  10  -2 1799.85 228.453   2
   0  10  -1-249.431 125.351   2
   0  10   0 6058.00 374.921   2
   0  10   1-147.519 94.2100   2
   0  11  -6 461.384 193.263   2
   0  11  -5 1903.02 274.472   2
   0  11  -4-255.766 161.896   2
   0  11  -3 1247.10 200.942   2
   0  11  -2 1.40464 122.245   2
   0  11  -1 4210.64 337.344   2
   0  11   0 93.3353 103.501   2
   0  11   1 3977.66 318.441   2
   0  11   2 3.24483 101.731   2
   0  12  -4 4567.67 407.520   2
   0  12  -3 154.573 156.763   2
  -1   0 -12 259.916 171.854   2
  -1   0 -11 161.225 159.163   2
   1   0 -10-116.078 128.657   2
  -1   0 -10-132.696 146.692   2
  -1   0  -9 86.9281 101.881   2
   1   0  -9 196.654 129.738   2
  -1   0  -8-107.178 99.7232   2
   1   0  -8 121.461 109.170   2
  -1   0  -7-104.487 108.454   2
   1   0  -7 58.2791 102.820   2
   1   0  -6 64.2518 90.5499   2
  -1   0  -6-83.1915 91.9397   2
   1   0  -5 76.1210 85.2943   2
  -1   0  -5 116.015 85.5411   2
  -1   0  -4 64.8214 82.3872   2
   1   0  -4 99.8335 84.8686   2
   1   0  -3-38.8940 74.2822   2
  -1   0  -3 40.4522 75.0036   2
   1   0  -2 35.8101 57.7704   2
  -1   0  -2 43.5286 59.1558   2
   1   0   2 95.1454 53.8939   2
  -1   0   2-57.8201 55.3299   2
  -1   0   3 96.5674 66.3457   2
   1   0   3 65.1171 56.3353   2
   1   0   4-55.3469 70.2478   2
  -1   0   4 31.3162 67.6568   2
  -1   0   5-41.5983 70.6454   2
   1   0   5-23.4574 73.4887   2
   1   0   6-47.9993 71.6456   2
  -1   0   6 34.9839 82.5123   2
   1   0   7-8.22079 81.4440   2
  -1   0   7-56.6506 87.2649   2
  -1   1 -12 84.9333 159.570   2
  -1   1 -11 2362.29 304.198   2
   1   1 -11 2867.55 353.581   2
  -1   1 -10 555.222 175.655   2
   1   1 -10 479.352 159.340   2
  -1  -1 -10 391.501 165.115   2
  -1   1  -9 2654.71 283.790   2
   1   1  -9 2658.54 286.572   2
  -1  -1  -9 2558.42 281.698   2
   1   1  -8 162.244 116.678   2
  -1  -1  -8-12.1957 105.239   2
  -1   1  -8 39.5803 104.714   2
   1   1  -7 10448.5 476.380   2
  -1   1  -7 10724.4 478.006   2
  -1  -1  -7 10530.8 461.494   2
  -1  -1  -6 6725.14 339.136   2
  -1   1  -6 6850.56 352.189   2
   1  -1  -6 6854.00 351.407   2
   1   1  -6 6779.30 355.823   2
  -1  -1  -5 15902.6 481.029   2
   1   1  -5 15425.1 498.066   2
  -1   1  -5 15846.3 499.131   2
   1  -1  -5 15249.5 489.928   2
   1   1  -4 3253.87 208.212   2
  -1  -1  -4 3023.83 187.534   2
  -1   1  -4 3140.28 204.190   2
  -1  -1  -3 23551.2 483.887   2
   1   1  -3 23829.3 516.535   2
  -1   1  -3 24070.2 520.964   2
  -1  -1  -2 28079.6 469.214   2
  -1   1  -2 28445.0 515.996   2
   1   1  -2 28840.3 509.141   2
   1   1   1 9725.89 215.730   1
   1  -1   2 28726.8 513.319   2
  -1  -1   2 28317.8 501.106   2
   1   1   2 28261.3 464.086   2
  -1  -1   3 23077.9 503.553   2
  -1   1   3 23907.7 510.624   2
   1  -1   3 23406.5 506.615   2
   1   1   3 23785.8 479.243   2
  -1  -1   4 3193.66 202.435   2
   1  -1   4 3422.42 206.407   2
   1   1   4 3250.44 190.607   2
  -1   1   4 3183.60 199.656   2
  -1   1   5 15988.8 503.417   2
   1   1   5 16117.0 483.983   2
  -1  -1   5 16343.3 509.265   2
   1  -1   5 15877.8 499.070   2
  -1  -1   6 6866.41 353.378   2
  -1   1   6 6797.66 347.232   2
   1   1   6 6988.56 340.164   2
   1  -1   6 6974.84 356.429   2
   1   1   7 11162.8 472.214   2
  -1   1   7 11193.8 483.859   2
   1  -1   7 10758.3 476.990   2
   1   2 -11 186.851 161.893   2
  -1   2 -11 198.244 157.644   2
   1   2 -10 11315.3 619.107   2
  -1   2 -10 10654.0 600.490   2
  -1   2  -9 6573.56 442.653   2
   1   2  -9 6565.26 439.299   2
   1   2  -8 8839.77 477.339   2
  -1   2  -8 8902.29 477.455   2
  -1   2  -7 1054.21 173.266   2
   1   2  -7 769.434 156.308   2
   1   2  -6 67925.6 1313.56   2
  -1   2  -6 69886.4 1319.26   2
  -1   2  -5 14912.8 499.130   2
   1   2  -5 15054.0 502.503   2
  -1   2  -4 23872.5 601.571   2
   1   2  -4 24471.9 598.130   2
   1   2  -3 1291.12 131.196   2
  -1   2  -3 1339.60 137.506   2
  -1   2  -2 30897.1 585.211   2
   1   2  -2 31001.9 563.504   2
   1   2  -1 98857.2 1221.98   2
  -1  -2  -1 97754.9 1231.52   1
  -1   2  -1 97257.0 1280.78   2
  -1  -2   0 354837. 3920.77   1
  -1  -2   1 97664.6 1218.59   2
   1   2   1 98097.9 1232.86   1
   1  -2   2 31604.8 592.957   2
   1   2   2 31032.9 509.751   2
  -1  -2   2 31635.1 563.931   2
   1  -2   3 1265.24 120.448   2
  -1  -2   3 1483.92 130.197   2
   1   2   3 1450.87 116.844   2
   1  -2   4 23574.9 594.602   2
  -1   2   4 24085.3 578.568   2
   1   2   4 24946.3 556.338   2
  -1  -2   4 24165.9 589.375   2
  -1   2   5 15928.7 498.442   2
   1   2   5 15664.8 473.801   2
  -1  -2   5 15913.3 510.713   2
   1  -2   5 15139.1 502.960   2
   1   2   6 71055.4 1289.65   2
   1  -2   6 71727.3 1356.06   2
  -1  -2   6 73113.1 1364.82   2
  -1   2   6 72221.7 1328.19   2
  -1   2   7 1010.83 169.022   2
   1   2   7 638.819 124.830   2
   1   3 -11 7762.84 565.069   2
  -1   3 -11 8649.79 584.170   2
  -1   3 -10 503.473 184.240   2
   1   3 -10 321.134 146.887   2
   1   3  -9 13498.3 647.577   2
  -1   3  -9 13903.3 658.001   2
   1   3  -8 335.617 136.904   2
  -1   3  -8 211.691 112.378   2
  -1   3  -7 45523.9 1109.28   2
   1   3  -7 45631.6 1101.62   2
   1   3  -6 6183.70 354.211   2
  -1   3  -6 6748.48 369.097   2
  -1   3  -5 76863.4 1373.61   2
   1   3  -5 77970.2 1366.62   2
   1   3  -4 14098.5 455.006   2
  -1   3  -4 14098.1 463.568   2
   1   3  -3 36245.6 718.806   2
  -1   3  -3 35434.8 736.172   2
  -1   3  -2 33676.5 660.746   2
   1   3  -2 33242.6 622.940   2
  -1   3  -1 142089. 1836.01   2
  -1  -3  -1 143062. 1752.80   1
   1   3  -1 143212. 1762.87   2
  -1  -3   0 20797.6 390.834   1
   1  -3   0 19609.6 286.986   1
   1   3   1 140468. 1733.25   1
  -1   3   1 140388. 1624.09   1
  -1  -3   2 32917.5 620.729   2
   1   3   2 33880.2 606.684   1
   1   3   3 35963.7 652.481   2
  -1  -3   3 35876.8 717.114   2
   1  -3   3 36764.2 745.829   2
  -1   3   4 14086.4 439.868   2
   1   3   4 13767.7 402.064   2
  -1  -3   4 13828.3 449.040   2
   1  -3   4 14336.4 466.202   2
  -1  -3   5 76856.8 1359.23   2
   1  -3   5 77809.1 1375.87   2
  -1   3   5 76778.8 1328.28   2
   1   3   5 75713.8 1269.99   2
  -1  -3   6 6228.10 354.338   2
  -1   3   6 6464.20 348.712   2
   1  -3   6 5655.40 339.892   2
   1   3   6 6411.26 326.901   2
   1   3   7 47257.9 1059.56   2
  -1   4 -11 1571.61 276.847   2
   1   4 -11 1912.67 302.397   2
  -1   4 -10 8595.53 552.172   2
   1   4 -10 8606.63 557.431   2
  -1   4  -9 3485.03 339.099   2
   1   4  -9 3238.27 335.874   2
   1   4  -8 24177.1 843.815   2
  -1   4  -8 23901.0 841.333   2
  -1   4  -7 492.871 143.909   2
   1   4  -7 709.265 166.344   2
  -1   4  -6 45481.2 1073.90   2
   1   4  -6 46459.3 1070.06   2
   1   4  -5 18871.1 597.201   2
  -1   4  -5 18662.8 608.195   2
   1   4  -4 49711.6 988.104   2
  -1   4  -4 50397.1 1011.95   2
   1   4  -3 5364.55 260.485   2
  -1   4  -3 5307.68 274.595   2
  -1   4  -2 71724.1 1173.46   2
   1   4  -2 73420.0 1131.50   2
   1   4  -1 17518.0 408.791   2
  -1  -4  -1 16717.2 384.239   1
  -1  -4   0 25257.7 480.512   1
   1  -4   0 24886.0 378.867   1
   1   4   1 17307.3 390.216   1
  -1   4   1 16607.3 314.108   1
   1   4   2 70801.0 1071.07   1
  -1   4   2 72483.0 1000.25   1
  -1  -4   2 72087.1 1128.90   2
   1   4   3 5254.50 241.105   1
  -1  -4   3 5013.43 255.792   2
   1   4   4 49532.4 895.913   2
   1  -4   4 49535.2 1015.48   2
  -1  -4   4 48616.2 976.642   2
  -1  -4   5 18890.8 599.266   2
   1  -4   5 18751.9 618.119   2
  -1   4   5 18984.0 579.618   2
   1   4   5 18996.6 539.137   2
  -1   4   6 46743.1 1035.84   2
  -1  -4   6 46339.2 1075.31   2
   1   4   6 44801.6 973.577   2
   1   4   7 542.087 120.482   2
   1   5 -10 1418.99 254.699   2
  -1   5 -10 1844.89 293.623   2
   1   5  -9 13906.5 685.685   2
  -1   5  -9 13093.9 675.714   2
  -1   5  -8 1131.41 208.533   2
   1   5  -8 1187.03 212.520   2
  -1   5  -7 21607.0 768.625   2
   1   5  -7 20790.4 753.936   2
   1   5  -6 3986.96 300.953   2
  -1   5  -6 3936.09 309.193   2
  -1   5  -5 22817.3 708.663   2
   1   5  -5 23660.0 702.639   2
   1   5  -4 11657.1 444.245   2
  -1   5  -4 10771.9 445.884   2
   1   5  -3 38091.4 810.952   2
  -1   5  -3 36633.7 831.839   2
  -1   5  -2 6378.13 302.329   2
   1   5  -2 6725.93 286.261   2
  -1  -5  -1 55955.4 887.912   1
  -1   5  -1 55925.7 1004.94   2
   1   5  -1 56905.4 944.075   2
  -1  -5   0 6347.58 232.904   1
   1  -5   0 6448.79 174.642   1
   1   5   2 6261.36 256.344   1
  -1   5   2 6778.37 223.267   1
   1   5   3 36503.5 744.192   1
  -1  -5   3 36655.6 801.382   2
  -1   5   3 36687.6 690.105   1
   1   5   4 11602.4 415.115   1
  -1  -5   4 11998.7 459.563   2
   1   5   5 23955.3 633.676   2
  -1  -5   5 22969.3 706.131   2
   1  -5   5 23842.8 726.444   2
   1   5   5 24606.7 670.327   1
  -1   5   6 4429.55 298.768   2
   1   5   6 4528.58 282.047   2
   1   5   7 21295.0 685.995   2
  -1   6 -10 1338.48 259.830   2
   1   6 -10 1349.75 253.398   2
  -1   6  -9 2229.68 296.612   2
   1   6  -9 2143.71 284.982   2
   1   6  -8 16732.8 735.611   2
  -1   6  -8 15664.6 717.794   2
   1   6  -7 2618.39 282.721   2
  -1   6  -7 3537.94 325.808   2
  -1   6  -6 6820.29 418.495   2
   1   6  -6 6072.97 387.698   2
  -1   6  -5 7868.05 419.709   2
   1   6  -5 9006.28 438.718   2
  -1   6  -4 12963.9 515.607   2
   1   6  -4 12839.1 491.955   2
   1   6  -3 7937.43 357.183   2
  -1   6  -3 7625.12 370.732   2
   1   6  -2 25015.2 625.334   2
  -1   6  -2 24518.2 662.827   2
   1   6  -1 8572.93 329.282   2
  -1   6  -1 8134.03 351.861   2
  -1  -6  -1 8430.36 291.349   1
  -1  -6   0 425.568 73.2371   1
   1   6   0 417.037 84.4964   2
   1  -6   0 385.668 50.1192   1
  -1  -6   1 7922.42 288.159   1
   1  -6   1 8141.56 232.431   1
  -1   6   2 24034.8 492.667   1
   1   6   2 24717.4 570.377   1
  -1   6   3 7059.93 272.666   1
   1   6   3 7136.11 309.693   1
   1   6   4 13141.6 456.954   1
  -1   6   4 13305.2 426.700   1
  -1   6   5 8519.34 369.602   1
   1   6   5 8240.26 368.943   2
   1   6   5 7949.22 379.616   1
   1   6   6 6426.64 350.469   2
  -1   7  -9 1064.08 248.139   2
   1   7  -9 348.819 164.574   2
  -1   7  -8 2553.97 309.538   2
   1   7  -8 2493.57 305.638   2
   1   7  -7 3831.67 343.236   2
  -1   7  -7 3925.07 359.807   2
   1   7  -6 2637.11 271.637   2
  -1   7  -6 2747.15 286.571   2
  -1   7  -5 736.086 165.458   2
   1   7  -5 664.658 139.666   2
   1   7  -4 11203.5 486.651   2
  -1   7  -4 11577.5 514.895   2
   1   7  -3 8569.80 396.269   2
  -1   7  -3 8317.88 412.188   2
   1   7  -2 5833.64 307.222   2
  -1   7  -2 6172.42 338.710   2
   1   7  -1 3448.07 226.924   2
  -1   7  -1 3492.46 252.757   2
  -1  -7   0 12316.9 372.187   1
   1   7   0 12610.6 422.230   2
  -1  -7   1 3581.81 199.947   1
   1  -7   1 3328.36 151.904   1
   1   7   3 8084.29 339.417   1
  -1   7   3 8134.70 303.637   1
   1   7   4 11287.3 434.870   1
  -1   7   4 11084.8 391.385   1
   1   7   5 573.449 115.509   2
  -1   7   5 1046.56 149.047   1
   1   7   5 581.428 126.514   1
  -1   7   6 2602.39 228.998   1
   1   7   6 2731.32 235.751   2
   1   8  -9 2749.36 348.964   2
  -1   8  -9 3335.97 384.504   2
   1   8  -8 1108.71 221.953   2
  -1   8  -8 1175.49 236.350   2
  -1   8  -7 173.441 137.618   2
   1   8  -7-147.304 139.130   2
   1   8  -6 2025.98 251.300   2
  -1   8  -6 2366.37 287.661   2
   1   8  -5 3576.91 309.460   2
  -1   8  -5 3611.72 321.041   2
  -1   8  -4 5724.70 377.545   2
   1   8  -4 5319.02 348.603   2
   1   8  -3 4157.52 296.079   2
  -1   8  -3 3767.44 293.557   2
  -1   8  -2 16501.5 597.191   2
   1   8  -2 17067.0 570.897   2
   1   8  -1 5113.36 295.323   2
  -1   8  -1 4902.79 314.897   2
  -1  -8   0 2094.13 156.163   1
   1   8   0 2591.93 203.209   2
  -1  -8   1 4836.45 245.818   1
   1  -8   1 4767.11 185.653   1
  -1  -8   2 16000.7 482.302   1
   1  -8   2 16770.6 413.505   1
  -1   8   3 4191.59 222.047   1
  -1   8   4 5545.36 282.103   1
   1   8   4 5218.76 303.827   1
   1   8   5 3477.82 267.017   1
   1   8   5 3389.92 258.720   2
  -1   8   5 3182.19 238.357   1
  -1   9  -8 1823.42 280.605   2
   1   9  -8 1964.28 288.717   2
   1   9  -7 5364.18 437.245   2
  -1   9  -7 5135.17 443.065   2
  -1   9  -6 478.057 155.445   2
   1   9  -6 323.970 151.263   2
   1   9  -5 7315.71 450.451   2
  -1   9  -5 7177.98 469.111   2
   1   9  -4 2007.18 238.113   2
  -1   9  -4 1654.69 229.749   2
   1   9  -3 14598.9 583.759   2
  -1   9  -3 15189.0 621.274   2
   1   9  -2 245.348 96.1737   2
  -1   9  -2 217.818 101.483   2
   1   9  -1 9969.67 442.790   2
  -1   9  -1 10572.1 489.856   2
  -1  -9   0 7237.89 300.519   1
   1   9   0 7714.06 377.987   2
  -1   9   0 7143.87 396.229   2
   1   9   1 10031.3 423.992   2
  -1  -9   1 9968.64 366.510   1
  -1  -9   2 278.148 82.2659   1
   1  -9   2 176.368 45.0960   1
  -1  -9   3 13616.0 479.100   1
   1  -9   3 13518.6 409.646   1
   1  10  -7 734.821 201.178   2
  -1  10  -7 586.051 187.035   2
   1  10  -6 5412.34 435.416   2
  -1  10  -6 4871.44 437.559   2
   1  10  -5 2747.65 301.843   2
  -1  10  -5 3012.53 325.631   2
  -1  10  -4 8627.74 513.569   2
   1  10  -4 8224.54 478.702   2
  -1  10  -3 405.010 157.491   2
   1  10  -3 74.2927 116.634   2
  -1  10  -2 16342.9 668.817   2
   1  10  -2 16652.6 634.100   2
  -1  10  -1 2737.49 267.737   2
   1  10  -1 2589.86 251.918   2
   1  10   0 4139.99 294.650   2
  -1  10   0 4054.54 316.202   2
  -1 -10   1 2623.35 190.337   1
   1  10   1 1896.96 198.631   2
  -1 -10   2 15379.1 486.173   1
   1  11  -6-23.7545 133.932   2
  -1  11  -6-9.59822 131.010   2
  -1  11  -5 3141.67 344.231   2
   1  11  -5 3563.41 354.056   2
  -1  11  -4 1740.50 271.859   2
   1  11  -4 1586.78 234.669   2
  -1  11  -3 15804.7 708.854   2
   1  11  -3 17290.7 701.906   2
   1  11  -2 1257.03 187.607   2
  -1  11  -2 1314.91 220.298   2
  -1  11  -1 4079.51 343.704   2
   1  11  -1 3623.86 299.394   2
  -1  11   0 1883.33 243.603   2
   1  11   0 2682.26 263.201   2
   1  11   1 4586.92 325.711   2
  -1  11   1 3432.96 311.948   2
  -1  12  -5 171.060 155.646   2
  -1  12  -4 4680.49 414.358   2
  -1  12  -3 138.947 132.631   2
  -1  12  -2 3311.01 331.532   2
  -1  12  -1 1001.10 200.246   2
  -1  12   0 1816.24 252.197   2
  -2   0 -12 9730.44 633.719   2
  -2   0 -11 17066.7 787.763   2
  -2   0 -10 5935.44 434.913   2
  -2   0  -9 1019.61 189.012   2
  -2   0  -8 25033.8 794.544   2
   2   0  -8 25449.9 820.024   2
  -2   0  -7 60851.1 1248.04   2
   2   0  -7 60159.5 1274.78   2
  -2   0  -6 39502.9 897.698   2
   2   0  -6 39673.0 925.142   2
   2   0  -5 2462.36 200.618   2
  -2   0  -5 2283.56 189.539   2
  -2   0  -4 75964.3 1193.55   2
   2   0  -4 76770.8 1236.22   2
  -2   0  -3 113057. 1512.33   2
   2   0  -3 114879. 1562.54   2
  -2   0  -2 18960.9 377.103   2
   2   0   1 64229.7 840.392   1
  -2   0   2 20177.5 411.272   2
   2   0   2 19981.0 386.338   2
   2   0   3 113653. 1503.30   2
  -2   0   3 112730. 1542.65   2
  -2   0   4 79204.7 1255.82   2
   2   0   4 78271.2 1214.23   2
   2   0   5 2310.35 184.063   2
  -2   0   5 2189.74 191.442   2
  -2   0   6 42211.6 948.929   2
   2   0   6 41128.1 915.603   2
   2   0   7 62123.8 1263.52   2
  -2   1 -12 8247.24 584.373   2
  -2  -1 -11 12643.1 670.455   2
  -2   1 -11 11793.5 664.678   2
   2   1 -10 5979.39 449.949   2
  -2   1 -10 5838.10 434.882   2
  -2  -1 -10 5712.46 428.557   2
   2   1  -9 16023.1 691.855   2
  -2   1  -9 15524.6 671.040   2
  -2  -1  -9 15458.2 652.123   2
   2   1  -8 9537.13 492.475   2
  -2  -1  -8 9308.28 465.450   2
  -2   1  -8 9299.77 479.435   2
  -2  -1  -7 54304.8 1154.10   2
  -2   1  -7 54527.7 1189.30   2
   2   1  -7 56324.4 1217.14   2
   2   1  -6 32226.0 818.367   2
  -2  -1  -6 32458.1 779.776   2
  -2   1  -6 31123.2 802.180   2
  -2  -1  -5 59967.4 1062.66   2
  -2   1  -5 58294.0 1093.37   2
   2   1  -5 59348.6 1110.70   2
  -2   1  -4 36738.6 747.366   2
   2   1  -4 36213.8 749.284   2
  -2  -1  -4 35902.9 702.238   2
  -2   1  -3 77992.4 1167.60   2
   2   1  -3 78283.0 1166.21   2
  -2  -1  -3 78083.0 1098.26   2
   2   1  -2 80891.0 1105.73   2
  -2  -1  -2 81676.1 1038.05   2
  -2   1  -2 80629.9 1124.69   2
  -2  -1  -1 230920. 2657.87   1
   2   1  -1 231363. 2595.51   2
  -2   1   0 50.8320 24.1383   1
  -2  -1   0 181.036 60.7270   1
  -2  -1   1 229500. 2577.92   2
   2   1   2 81148.8 1039.69   2
   2  -1   2 81074.0 1133.83   2
  -2  -1   2 82308.1 1111.20   2
  -2   1   3 78318.2 1179.30   2
  -2  -1   3 77705.3 1164.29   2
   2  -1   3 80120.8 1176.15   2
   2   1   3 78161.7 1099.58   2
   2  -1   4 37117.8 748.488   2
  -2  -1   4 35800.3 753.041   2
   2   1   4 37299.5 707.785   2
  -2   1   4 36887.2 759.798   2
   2   1   5 62585.9 1083.90   2
  -2  -1   5 59673.0 1128.92   2
  -2   1   5 61750.4 1134.13   2
   2  -1   5 60812.3 1121.50   2
  -2   1   6 33967.7 836.241   2
   2  -1   6 33764.4 835.078   2
   2   1   6 33021.3 791.952   2
  -2  -1   6 34451.0 842.818   2
   2  -1   7 55068.8 1200.53   2
   2   1   7 56847.0 1176.54   2
   2   2 -11 6006.64 494.262   2
  -2   2 -11 7126.31 526.933   2
   2   2 -10 7620.16 513.909   2
  -2   2 -10 7465.30 502.147   2
   2   2  -9 16.5138 115.827   2
  -2   2  -9 68.7243 107.193   2
  -2  -2  -8 6118.83 373.976   2
  -2   2  -8 6048.84 395.530   2
   2   2  -8 6315.00 407.434   2
  -2   2  -7 20190.7 686.241   2
   2   2  -7 20552.8 688.991   2
  -2  -2  -7 19931.4 637.715   2
  -2   2  -6 17299.7 583.440   2
  -2  -2  -6 16199.7 526.602   2
   2   2  -6 17363.7 585.332   2
  -2  -2  -5 10627.8 378.756   2
   2   2  -5 10734.4 421.370   2
  -2   2  -5 10594.3 422.013   2
  -2   2  -4 4215.06 244.959   2
   2   2  -4 4789.79 251.816   2
  -2  -2  -4 4868.16 224.778   2
  -2   2  -3 57866.5 981.528   2
   2   2  -3 58914.8 955.478   2
  -2  -2  -3 56648.6 863.032   2
   2   2  -2 31864.6 565.546   2
  -2   2  -2 30538.9 603.974   2
   2   2  -1 105766. 1283.24   2
  -2  -2  -1 104182. 1361.52   1
  -2  -2   0 19658.5 392.544   1
  -2  -2   1 106475. 1298.28   2
   2   2   1 107280. 1382.67   1
  -2  -2   2 31523.7 559.060   2
   2   2   2 31661.1 586.006   1
   2   2   2 31044.7 483.146   2
  -2  -2   3 59392.0 964.675   2
   2  -2   3 60617.7 1003.62   2
   2   2   3 59056.1 880.833   2
   2  -2   4 4463.83 250.805   2
  -2  -2   4 4784.19 249.595   2
   2   2   4 5049.25 225.386   2
  -2   2   4 4762.18 250.844   2
  -2  -2   5 10521.0 417.413   2
  -2   2   5 10521.7 413.535   2
   2  -2   5 11087.1 429.933   2
   2   2   5 10436.2 370.940   2
   2   2   6 18006.8 548.378   2
  -2   2   6 18059.6 593.044   2
  -2  -2   6 17881.1 595.235   2
   2  -2   6 16592.9 579.358   2
   2   2   7 21246.9 655.737   2
   2   3 -11 1510.66 263.903   2
  -2   3 -11 1725.28 271.675   2
  -2   3 -10 4119.84 387.448   2
   2   3 -10 4095.62 391.700   2
  -2   3  -9 2941.40 301.112   2
   2   3  -9 3766.28 351.585   2
  -2   3  -8 5096.00 375.234   2
   2   3  -8 4542.99 352.874   2
  -2   3  -7 983.565 175.590   2
   2   3  -7 604.591 146.229   2
   2   3  -6 11972.8 492.780   2
  -2   3  -6 12086.7 498.726   2
  -2   3  -5 6913.49 353.469   2
   2   3  -5 6902.62 342.889   2
   2   3  -4 3488.18 221.034   2
  -2   3  -4 3227.19 219.754   2
  -2   3  -3 21370.4 550.116   2
   2   3  -3 21554.3 518.928   2
  -2   3  -2 50457.9 887.558   2
   2   3  -2 49821.5 807.859   2
  -2  -3  -1 9945.79 291.896   1
   2   3  -1 9842.41 254.033   2
  -2  -3   0 3047.15 158.167   1
   2   3   0 3300.98 118.200   2
   2   3   1 10191.5 295.525   1
  -2  -3   1 9791.20 252.857   2
   2   3   2 49075.8 828.525   1
  -2  -3   2 50189.3 806.039   2
   2   3   3 21928.1 526.054   1
  -2  -3   3 21285.7 516.186   2
   2  -3   3 22104.5 560.880   2
   2   3   3 21316.5 442.245   2
   2  -3   4 3368.24 227.815   2
  -2  -3   4 3155.47 209.368   2
   2   3   4 3444.28 188.600   2
   2   3   5 6551.73 292.551   2
  -2  -3   5 6611.90 332.842   2
  -2   3   5 6283.99 327.892   2
   2  -3   5 6584.96 343.205   2
  -2  -3   6 13532.4 520.647   2
   2  -3   6 12920.3 520.415   2
  -2   3   6 12786.1 499.571   2
   2   3   6 12758.4 457.345   2
   2   3   7 527.260 112.479   2
   2   4 -11 4916.86 444.288   2
  -2   4 -11 5259.29 466.582   2
   2   4 -10 105.900 141.216   2
  -2   4 -10 160.418 148.196   2
   2   4  -9 2040.98 265.895   2
  -2   4  -9 2213.56 285.191   2
  -2   4  -8 159.848 136.567   2
   2   4  -8 309.131 135.114   2
  -2   4  -7 7209.01 424.747   2
   2   4  -7 6401.86 398.094   2
  -2   4  -6 3421.06 286.962   2
   2   4  -6 3206.51 262.260   2
   2   4  -5 7742.48 374.609   2
  -2   4  -5 7078.47 377.593   2
   2   4  -4 412.634 99.0457   2
  -2   4  -4 406.892 108.967   2
  -2   4  -3 16617.0 513.141   2
   2   4  -3 16934.2 472.565   2
   2   4  -2 667.456 94.1454   2
  -2   4  -2 785.656 122.301   2
   2   4  -1 53559.7 824.709   2
  -2  -4  -1 53168.3 870.807   1
  -2  -4   0 51.0672 53.4346   1
   2   4   0 16.3690 41.7967   2
   2   4   1 52051.8 848.695   1
  -2   4   1 49706.6 643.643   1
   2   4   2 865.365 102.114   1
  -2  -4   2 766.439 97.6131   2
   2   4   3 16601.2 469.492   1
   2   4   3 16885.7 399.290   2
  -2  -4   3 17265.0 476.877   2
   2  -4   4 333.506 97.9676   2
   2   4   4 327.010 76.9587   2
   2   4   4 376.094 89.6449   1
  -2  -4   4 332.188 88.0502   2
   2   4   5 6899.40 305.251   2
  -2  -4   5 7495.56 366.931   2
   2  -4   5 7273.46 380.755   2
  -2   4   5 7182.00 357.065   2
  -2  -4   6 3404.08 266.405   2
   2   4   6 3347.60 235.580   2
  -2   4   6 3287.66 261.702   2
   2   4   7 6785.94 363.777   2
   2   5 -10 431.971 186.977   2
  -2   5 -10 325.497 190.772   2
  -2   5  -9 3821.68 377.113   2
   2   5  -9 3482.18 354.644   2
  -2   5  -8 3981.29 357.870   2
   2   5  -8 4426.66 363.619   2
  -2   5  -7 10897.5 546.588   2
   2   5  -7 10988.6 532.651   2
   2   5  -6 1610.13 201.245   2
  -2   5  -6 1524.76 203.685   2
  -2   5  -5 19246.4 652.807   2
   2   5  -5 18749.8 612.253   2
   2   5  -4 5083.90 290.738   2
  -2   5  -4 4748.20 299.065   2
  -2   5  -3 28753.2 737.497   2
   2   5  -3 29867.0 690.414   2
   2   5  -2 41167.3 782.218   2
  -2   5  -2 40596.7 872.611   2
   2   5  -1 33023.5 628.218   2
  -2  -5  -1 31005.6 640.557   1
  -2  -5   0 1652.67 135.729   1
   2   5   0 1630.04 116.414   2
   2   5   2 40084.9 780.431   1
  -2   5   2 39513.1 624.010   1
  -2  -5   3 29379.0 689.926   2
   2   5   3 29962.4 683.711   1
  -2  -5   4 4285.13 264.859   2
   2   5   4 4689.39 268.310   1
   2   5   4 4338.16 223.799   2
   2   5   5 19048.4 605.719   1
   2   5   5 19309.9 539.835   2
  -2  -5   5 19304.1 622.808   2
   2   5   6 1400.51 164.884   2
   2   5   7 11099.0 470.504   2
   2   6 -10 5074.86 455.205   2
  -2   6 -10 5849.39 494.880   2
   2   6  -9 2021.25 278.913   2
  -2   6  -9 2210.75 295.188   2
  -2   6  -8 7518.88 494.961   2
   2   6  -8 8512.61 516.220   2
   2   6  -7 2619.08 275.929   2
  -2   6  -7 2381.33 282.844   2
  -2   6  -6 9743.07 503.004   2
   2   6  -6 11240.4 519.681   2
  -2   6  -5 1403.26 200.621   2
   2   6  -5 1060.49 165.628   2
   2   6  -4 9905.87 423.082   2
  -2   6  -4 9941.37 459.766   2
   2   6  -3 5476.92 291.003   2
  -2   6  -3 5390.70 323.654   2
  -2   6  -2 13435.9 493.632   2
   2   6  -2 13613.9 432.196   2
   2   6  -1 2298.82 165.870   2
  -2  -6  -1 2130.50 158.820   1
   2   6   0 29483.8 607.907   2
  -2  -6   0 29109.7 635.987   1
  -2  -6   1 2315.66 168.870   1
   2  -6   1 1981.41 90.2759   1
  -2   6   2 12734.8 304.598   1
   2   6   2 12611.9 414.329   1
   2   6   3 5312.75 279.081   1
  -2   6   3 5645.12 227.916   1
  -2   6   4 10351.7 358.031   1
   2   6   4 9995.87 407.992   1
   2   6   4 10095.1 363.043   2
  -2  -6   4 9408.42 418.762   2
   2   6   5 1370.43 176.779   1
  -2  -6   5 1349.03 179.126   2
   2   6   5 1013.99 129.253   2
   2   6   6 9789.14 417.063   2
   2   6   7 2084.45 207.843   2
  -2   7  -9 10782.5 647.319   2
   2   7  -9 10985.9 637.614   2
   2   7  -8 511.255 174.688   2
  -2   7  -8 639.054 185.408   2
  -2   7  -7 12069.1 626.540   2
   2   7  -7 13351.3 629.256   2
  -2   7  -6 577.123 139.265   2
   2   7  -6 637.309 142.988   2
  -2   7  -5 29717.0 899.177   2
   2   7  -5 27670.6 820.893   2
   2   7  -4 150.119 91.3805   2
  -2   7  -4 180.951 116.694   2
   2   7  -3 44884.5 966.636   2
  -2   7  -3 41837.0 1024.46   2
   2   7  -2 755.888 123.071   2
  -2   7  -2 467.586 113.737   2
  -2   7  -1 32259.6 821.242   2
  -2  -7  -1 31059.7 690.250   1
   2   7  -1 31881.1 710.563   2
   2   7   0 6605.78 286.154   2
  -2  -7   0 5901.37 273.257   1
  -2  -7   1 30754.7 686.704   1
   2  -7   1 29269.3 455.418   1
  -2   7   3 43115.6 760.848   1
   2   7   3 43030.7 917.136   1
   2   7   4 94.2233 95.1214   1
  -2   7   4 117.720 65.5644   1
  -2   7   5 28775.3 713.517   1
   2   7   5 28955.7 802.087   1
   2   7   5 29317.8 731.418   2
   2   7   6 764.045 131.828   2
  -2   7   6 395.903 112.866   1
   2   8  -9 1661.37 271.603   2
   2   8  -8 5676.33 450.654   2
  -2   8  -8 5402.62 459.150   2
  -2   8  -7 558.696 157.829   2
   2   8  -7 323.737 138.940   2
  -2   8  -6 5673.64 423.790   2
   2   8  -6 5916.65 408.129   2
   2   8  -5 227.392 124.502   2
  -2   8  -5 337.576 138.373   2
  -2   8  -4 14122.4 609.513   2
   2   8  -4 15318.6 585.576   2
   2   8  -3 219.790 93.9347   2
  -2   8  -3 137.133 121.046   2
   2   8  -2 17052.5 552.365   2
  -2   8  -2 16237.5 613.064   2
  -2   8  -1 6074.39 358.560   2
   2   8  -1 6050.93 309.592   2
  -2  -8   0 2531.52 193.153   1
   2   8   0 2958.00 203.817   2
   2   8   1 6235.53 294.280   2
  -2  -8   1 5671.29 288.880   1
   2  -8   2 16393.2 357.076   1
  -2  -8   2 15376.6 503.083   1
   2   8   4 13896.4 521.280   1
  -2   8   4 14196.5 434.258   1
  -2   8   5 142.878 82.0234   1
   2   8   5 187.728 81.5533   2
   2   9  -8 308.316 161.157   2
  -2   9  -8 517.262 207.576   2
   2   9  -7 3497.28 352.717   2
  -2   9  -7 3669.07 384.830   2
   2   9  -6 437.814 155.122   2
  -2   9  -6 225.583 151.381   2
   2   9  -5 4476.06 352.059   2
  -2   9  -5 4173.51 365.299   2
   2   9  -4 1093.28 177.127   2
  -2   9  -4 761.377 175.838   2
  -2   9  -3 4944.19 362.231   2
   2   9  -3 4953.94 331.477   2
  -2   9  -2 5787.95 381.232   2
   2   9  -2 5500.29 330.282   2
   2   9  -1 10749.2 437.268   2
  -2   9  -1 9758.54 489.462   2
   2   9   0 1325.86 155.348   2
  -2  -9   0 927.307 123.879   1
   2   9   1 9398.27 390.542   2
  -2  -9   1 9660.87 389.114   1
   2  -9   2 5101.89 172.868   1
  -2  -9   2 5666.53 310.226   1
   2  -9   3 4634.03 204.344   1
  -2  -9   3 4234.31 278.434   1
   2  10  -7 1091.70 240.178   2
  -2  10  -7 414.377 183.906   2
   2  10  -6 901.672 202.736   2
  -2  10  -6 1001.17 223.487   2
   2  10  -5 587.922 165.009   2
  -2  10  -5 488.857 152.175   2
  -2  10  -4 2089.10 272.311   2
   2  10  -4 2025.19 245.825   2
   2  10  -3 745.379 169.059   2
  -2  10  -3 656.597 181.118   2
  -2  10  -2 782.199 175.821   2
   2  10  -2 1223.58 184.109   2
  -2  10  -1 1610.71 225.151   2
   2  10  -1 1751.55 197.932   2
  -2  10   0 1498.29 223.682   2
   2  10   0 1276.26 172.545   2
  -2 -10   1 1507.65 167.074   1
   2  10   1 1960.72 201.787   2
  -2 -10   2 1138.98 154.421   1
   2  10   2 1056.08 152.338   2
  -2 -10   3 640.663 132.536   1
  -2 -10   4 1488.62 186.919   1
   2  11  -6 1351.60 255.837   2
  -2  11  -5 405.244 185.891   2
   2  11  -5 145.327 150.520   2
  -2  11  -4 1555.73 247.858   2
   2  11  -4 1280.47 200.892   2
  -2  11  -3 238.352 145.576   2
   2  11  -3 53.4807 103.337   2
   2  11  -2 889.253 163.663   2
  -2  11  -2 866.431 196.126   2
   2  11  -1 2263.28 233.875   2
  -2  11  -1 2370.38 277.426   2
  -2  11   0 860.966 176.130   2
  -2  11   1 1990.31 259.901   2
  -2  12  -4 1138.59 232.986   2
  -2  12  -3 2718.89 322.355   2
  -2  12  -2 672.118 190.110   2
  -2  12  -1 884.546 209.245   2
  -2  12   0-129.530 157.737   2
  -2  12   1 752.956 186.263   2
  -3   0 -12-60.6817 129.571   2
  -3   0 -11-58.1930 156.301   2
  -3   0 -10-88.2268 123.183   2
  -3   0  -9 108.844 131.443   2
  -3   0  -8 26.0574 106.235   2
  -3   0  -7-6.76822 98.2795   2
  -3   0  -6-38.0410 89.8582   2
  -3   0  -5 2.93823 70.8015   2
  -3   0  -4-95.3322 70.8012   2
  -3   0  -3 30.0099 69.3120   2
  -3   0  -2 17.9437 60.7152   2
  -3   0  -1 45.2947 58.9634   1
  -3   0   0 20.0358 51.5491   1
   3   0   1-40.7311 53.8809   1
   3   0   2 110.745 50.0395   2
  -3   0   3-14.8994 68.4130   2
   3   0   3 17.5675 55.0966   2
   3   0   4-2.09776 62.8371   2
  -3   0   4 14.3327 74.4731   2
  -3   0   5-14.8454 77.9627   2
   3   0   5-9.07979 64.1855   2
   3   0   6-9.70485 67.3223   2
  -3   0   6-9.18045 85.0108   2
   3   0   7 59.0437 72.8480   2
  -3  -1 -11 5710.27 454.665   2
  -3   1 -11 5060.16 437.250   2
  -3   1 -10 2371.67 292.118   2
  -3  -1 -10 2429.05 285.204   2
   3   1  -9 495.117 146.597   2
  -3   1  -9 844.610 178.161   2
  -3  -1  -9 970.037 179.917   2
   3   1  -8 1193.11 199.820   2
  -3  -1  -8 1304.31 187.058   2
  -3   1  -8 1520.06 212.005   2
  -3   1  -7 11652.1 506.567   2
   3   1  -7 12791.7 538.435   2
  -3  -1  -7 11685.9 482.825   2
   3   1  -6 535.421 119.676   2
  -3  -1  -6 712.128 126.475   2
  -3   1  -6 850.898 149.899   2
  -3  -1  -5 7342.71 310.599   2
  -3   1  -5 6735.07 321.568   2
   3   1  -5 7092.42 338.480   2
  -3   1  -4 8546.65 335.786   2
   3   1  -4 8942.94 342.165   2
  -3  -1  -4 8822.72 306.547   2
   3   1  -3 6312.64 258.665   2
  -3  -1  -3 5969.28 216.794   2
  -3   1  -3 5442.67 243.990   2
  -3  -1  -2 4434.98 151.415   2
   3   1  -2 4580.65 188.626   2
  -3   1  -2 4416.14 199.122   2
  -3  -1  -1 35253.7 460.671   2
  -3  -1  -1 34140.9 593.507   1
  -3  -1   0 87.8610 76.0722   1
  -3   1   0 8.41991 42.1683   1
   3   1   1 35261.2 598.832   1
   3  -1   1 34570.3 528.422   1
  -3  -1   1 34603.3 525.973   2
  -3  -1   2 4715.08 188.916   2
   3   1   2 4350.56 194.610   1
   3   1   2 4582.94 152.770   2
  -3  -1   3 5675.68 241.554   2
   3  -1   3 6123.63 251.528   2
   3   1   3 6234.65 217.195   2
  -3  -1   4 8653.37 338.748   2
   3   1   4 9058.74 306.252   2
  -3   1   4 8808.91 349.499   2
   3  -1   4 9179.30 345.119   2
   3   1   5 7473.98 313.786   2
   3  -1   5 7342.15 335.600   2
  -3  -1   5 7866.18 353.449   2
  -3   1   5 7809.26 352.732   2
  -3  -1   6 682.127 129.762   2
   3   1   6 622.601 116.050   2
   3  -1   6 636.993 122.355   2
  -3   1   6 617.609 128.301   2
   3   1   7 12565.1 501.395   2
  -3   2 -11 857.390 217.100   2
   3   2 -11 726.727 202.365   2
  -3   2 -10 7451.30 505.711   2
   3   2 -10 8239.51 537.471   2
  -3  -2  -9 98.6336 103.809   2
   3   2  -9-45.2152 126.115   2
  -3   2  -9-17.2888 120.804   2
   3   2  -8 23248.1 797.799   2
  -3  -2  -8 23573.1 748.138   2
  -3   2  -8 23066.0 791.500   2
  -3   2  -7 10525.7 491.932   2
   3   2  -7 10340.7 488.366   2
  -3  -2  -7 10751.6 458.739   2
  -3   2  -6 12663.9 499.358   2
   3   2  -6 12514.6 495.626   2
  -3  -2  -6 12590.7 453.333   2
  -3   2  -5 6583.79 335.778   2
  -3  -2  -5 6963.60 297.551   2
   3   2  -5 6891.35 330.213   2
  -3   2  -4 32389.0 728.381   2
  -3  -2  -4 31515.9 628.307   2
   3   2  -4 32170.4 712.761   2
  -3   2  -3 4681.71 242.492   2
   3   2  -3 5037.16 231.896   2
  -3  -2  -3 4928.98 187.665   2
   3   2  -2 96653.5 1291.18   2
  -3   2  -2 96368.2 1380.62   2
  -3  -2  -2 95646.8 1164.76   2
   3   2  -1 14237.7 284.990   2
  -3  -2  -1 14576.3 369.391   1
  -3  -2   0 38880.0 664.390   1
  -3   2   0 38101.2 488.723   1
   3   2   1 14138.5 360.683   1
   3  -2   1 14044.3 260.393   1
  -3  -2   1 13911.2 280.251   2
   3   2   2 97010.7 1177.15   2
  -3  -2   2 97012.5 1302.08   2
   3   2   2 99116.0 1380.09   1
   3   2   3 4827.96 181.725   2
  -3  -2   3 5088.70 230.899   2
   3   2   3 5030.87 242.816   1
   3  -2   3 4973.31 246.637   2
  -3  -2   4 32953.6 716.587   2
   3   2   4 31870.3 625.078   2
   3  -2   4 31373.6 732.162   2
   3   2   5 6560.33 288.149   2
  -3  -2   5 7305.06 343.205   2
   3  -2   5 6988.93 343.870   2
  -3   2   5 7003.40 345.602   2
  -3  -2   6 13339.3 513.267   2
   3  -2   6 13136.7 507.513   2
  -3   2   6 13681.0 522.116   2
   3   2   6 13368.9 466.092   2
   3   2   7 11486.7 467.817   2
   3   3 -11 14523.0 755.554   2
  -3   3 -11 12857.6 713.619   2
   3   3 -10 2012.22 277.248   2
  -3   3 -10 2238.38 288.677   2
  -3   3  -9 15128.1 696.476   2
   3   3  -9 15908.8 709.008   2
   3   3  -8 219.311 103.990   2
  -3   3  -8 242.234 131.204   2
  -3   3  -7 24307.0 784.570   2
   3   3  -7 24708.9 780.099   2
  -3   3  -6 7511.79 401.557   2
   3   3  -6 7561.50 390.441   2
  -3   3  -5 14628.3 524.424   2
   3   3  -5 14885.7 508.785   2
  -3   3  -4 27044.5 691.735   2
   3   3  -4 27065.5 652.396   2
  -3   3  -3 77153.7 1272.37   2
   3   3  -3 76309.1 1190.08   2
   3   3  -2 15808.6 383.474   2
  -3   3  -2 15816.2 454.215   2
   3   3  -1 84392.1 1084.97   2
  -3  -3  -1 82117.3 1219.47   1
  -3  -3   0 11249.6 335.233   1
   3   3   0 11576.1 211.241   2
  -3  -3   1 81599.8 1067.55   2
   3   3   1 83088.5 1213.63   1
   3   3   2 15651.7 288.001   2
   3   3   2 16152.3 433.606   1
  -3  -3   2 15693.3 378.392   2
  -3  -3   3 75614.5 1183.66   2
   3   3   3 76915.2 1235.68   1
   3   3   3 76389.4 1048.04   2
   3   3   4 26864.7 559.665   2
   3   3   4 28199.0 679.003   1
  -3  -3   4 27678.9 662.286   2
   3  -3   4 27295.3 695.813   2
   3  -3   5 15233.8 539.688   2
  -3   3   5 15071.3 523.467   2
  -3  -3   5 13742.7 493.896   2
   3   3   5 14425.6 431.691   2
   3   3   6 7555.78 339.942   2
   3  -3   6 8048.94 416.340   2
  -3   3   6 7639.00 394.049   2
  -3  -3   6 8103.07 399.947   2
   3   3   7 25930.8 723.058   2
   3   4 -11 858.308 219.862   2
  -3   4 -11 918.055 221.816   2
   3   4 -10 15240.0 754.101   2
  -3   4 -10 14873.9 749.612   2
   3   4  -9 599.397 172.149   2
  -3   4  -9 323.829 142.810   2
  -3   4  -8 14832.7 660.941   2
   3   4  -8 15258.4 658.281   2
   3   4  -7 1355.84 199.005   2
  -3   4  -7 1165.90 198.269   2
   3   4  -6 30963.4 842.695   2
  -3   4  -6 30354.2 867.360   2
   3   4  -5 19352.6 604.003   2
  -3   4  -5 18925.0 628.286   2
  -3   4  -4 28087.1 735.123   2
   3   4  -4 27450.7 680.732   2
   3   4  -3 31009.2 669.045   2
  -3   4  -3 30502.3 741.224   2
   3   4  -2 76808.9 1132.81   2
  -3  -4  -2 75160.3 1204.60   1
  -3   4  -2 75877.9 1276.35   2
   3   4  -1 5428.07 195.263   2
  -3  -4  -1 5014.06 235.062   1
   3   4   0 89461.4 1109.94   2
  -3  -4   0 85803.0 1301.73   1
   3   4   1 5481.39 249.155   1
   3   4   2 76004.9 1214.99   1
  -3  -4   2 75577.5 1127.69   2
   3   4   3 31293.3 707.611   1
  -3  -4   3 30126.2 661.027   2
   3   4   3 31124.6 550.089   2
  -3  -4   4 28402.4 687.034   2
   3   4   4 29002.4 711.398   1
   3   4   4 27549.4 574.417   2
   3   4   5 19537.2 607.366   1
   3  -4   5 19141.4 639.458   2
  -3  -4   5 19408.2 602.112   2
   3   4   5 18952.4 511.182   2
  -3  -4   6 30876.9 846.202   2
   3   4   6 31086.2 739.915   2
   3   4   7 1189.52 148.931   2
   3   5 -10 1708.38 266.200   2
  -3   5 -10 2138.18 313.842   2
  -3   5  -9 15741.0 747.497   2
   3   5  -9 15239.3 714.560   2
  -3   5  -8 1867.75 258.621   2
   3   5  -8 2261.74 272.980   2
  -3   5  -7 10052.3 533.623   2
   3   5  -7 10084.6 509.693   2
   3   5  -6 6542.73 383.659   2
  -3   5  -6 6743.05 411.464   2
  -3   5  -5 9074.67 450.030   2
   3   5  -5 9578.05 430.179   2
  -3   5  -4 20784.9 660.331   2
   3   5  -4 22361.6 620.859   2
   3   5  -3 43980.6 863.343   2
  -3   5  -3 42771.3 956.202   2
   3   5  -2 11747.0 363.245   2
  -3   5  -2 11231.9 434.001   2
   3   5  -1 42335.4 717.863   2
  -3  -5  -1 41047.6 806.793   1
   3   5   0 136.689 43.1643   2
  -3  -5   0 43.5808 68.9463   1
   3   5   2 10855.7 383.987   1
  -3   5   2 10688.7 248.480   1
   3   5   3 43207.5 901.489   1
  -3  -5   3 42274.0 856.198   2
   3   5   3 43313.9 721.292   2
   3   5   4 21913.3 508.975   2
  -3  -5   4 21834.7 615.691   2
   3   5   4 21931.8 629.898   1
   3   5   5 10076.2 363.699   2
  -3  -5   5 9833.63 437.067   2
   3   5   5 10184.4 442.137   1
   3   5   6 7003.58 332.603   2
   3   5   7 9414.25 419.025   2
   3   6 -10 5087.21 461.765   2
  -3   6 -10 5310.35 475.063   2
   3   6  -9 990.430 227.131   2
  -3   6  -9 1106.79 235.303   2
  -3   6  -8 7876.32 512.549   2
   3   6  -8 8637.23 513.068   2
  -3   6  -7 333.026 134.114   2
   3   6  -7 728.875 162.490   2
  -3   6  -6 4353.14 349.303   2
   3   6  -6 4746.51 344.308   2
  -3   6  -5 17861.6 667.435   2
   3   6  -5 18512.1 624.712   2
   3   6  -4 7962.99 376.199   2
  -3   6  -4 7298.09 402.757   2
   3   6  -3 4827.09 270.474   2
  -3   6  -3 4873.73 313.839   2
   3   6  -2 15038.6 444.070   2
  -3   6  -2 14980.7 539.697   2
   3   6  -1 7144.31 272.720   2
  -3  -6  -1 6889.69 304.375   1
  -3  -6   0 21069.2 559.350   1
   3   6   0 22392.8 478.479   2
  -3  -6   1 5893.08 287.385   1
   3   6   1 7085.57 236.884   2
  -3   6   2 13924.8 290.155   1
   3   6   2 15432.0 488.372   1
   3   6   3 4924.81 284.699   1
  -3   6   3 4876.38 199.446   1
  -3  -6   4 7357.16 363.205   2
   3   6   4 7298.21 286.974   2
   3   6   4 7440.36 372.836   1
  -3  -6   5 17542.6 619.458   2
   3   6   5 18881.3 630.233   1
   3   6   5 18072.4 515.290   2
   3   6   6 4179.27 260.979   2
   3   7  -9 1085.57 232.862   2
  -3   7  -9 920.390 236.327   2
  -3   7  -8 3861.35 389.029   2
   3   7  -8 3673.19 354.271   2
  -3   7  -7 7784.12 505.025   2
   3   7  -7 8398.00 495.197   2
  -3   7  -6 1821.66 247.142   2
   3   7  -6 1687.77 216.165   2
  -3   7  -5 690.465 154.901   2
   3   7  -5 488.219 135.214   2
   3   7  -4 12909.7 503.415   2
  -3   7  -4 12518.8 557.593   2
   3   7  -3 4347.33 269.941   2
  -3   7  -3 4278.13 313.751   2
  -3   7  -2 184.578 111.012   2
   3   7  -2 51.0881 61.3550   2
  -3  -7  -1 4407.23 258.314   1
   3   7  -1 4546.94 235.596   2
   3   7   0 16052.1 430.607   2
  -3  -7   0 15223.7 485.384   1
  -3  -7   1 4282.49 256.580   1
   3   7   1 4366.14 207.076   2
   3  -7   2 54.1221 27.8231   1
   3   7   3 4116.00 267.396   1
  -3   7   3 4158.88 181.988   1
   3   7   4 12220.3 491.061   1
   3   7   4 12158.3 395.751   2
  -3   7   4 12202.1 384.140   1
  -3   7   5 559.134 107.561   1
   3   7   5 550.852 104.873   2
   3   7   6 1683.49 172.576   2
   3   8  -9 4802.31 434.614   2
  -3   8  -8 2109.60 302.780   2
   3   8  -8 2343.43 307.987   2
   3   8  -7 650.500 149.339   2
  -3   8  -7 222.063 138.272   2
  -3   8  -6 11760.5 619.494   2
   3   8  -6 12933.9 594.087   2
   3   8  -5 4199.31 325.836   2
  -3   8  -5 4795.91 388.380   2
   3   8  -4 5662.33 349.117   2
  -3   8  -4 5831.14 403.207   2
  -3   8  -3-74.4526 102.882   2
   3   8  -3 97.8291 89.3620   2
  -3   8  -2 7073.30 412.972   2
   3   8  -2 6581.29 327.518   2
  -3  -8  -1 5678.78 301.293   1
   3   8  -1 6106.71 295.014   2
  -3   8  -1 5827.03 365.166   2
   3   8   0 1706.14 148.635   2
  -3  -8   0 1874.57 178.768   1
   3   8   1 6141.90 271.967   2
  -3  -8   1 5320.41 300.666   1
  -3  -8   2 6436.04 335.884   1
   3  -8   2 5434.72 131.369   1
  -3   8   4 5840.01 254.644   1
   3   8   4 5903.83 284.856   2
   3   8   4 5648.41 344.246   1
   3   9  -8 1793.62 262.694   2
   3   9  -7 6736.05 475.426   2
  -3   9  -7 6604.73 504.750   2
   3   9  -6 1493.69 235.822   2
  -3   9  -6 1516.91 251.967   2
  -3   9  -5 9115.55 545.402   2
   3   9  -5 8702.29 479.937   2
  -3   9  -4 631.692 174.864   2
   3   9  -4 444.688 134.103   2
   3   9  -3 9820.47 449.459   2
  -3   9  -3 8495.75 487.623   2
   3   9  -2 2370.42 216.722   2
  -3   9  -2 1993.49 231.135   2
  -3   9  -1 5049.90 358.350   2
   3   9  -1 4969.69 289.438   2
   3   9   0 4544.30 260.528   2
  -3  -9   0 4589.92 282.219   1
  -3  -9   1 4383.05 280.807   1
   3   9   1 4944.88 262.413   2
   3   9   2 2296.77 179.135   2
  -3  -9   2 2169.41 209.105   1
  -3  -9   3 8716.87 423.655   1
   3  10  -8 6305.33 504.170   2
   3  10  -7 846.633 212.109   2
   3  10  -6 6017.90 437.842   2
  -3  10  -6 5356.24 454.964   2
   3  10  -5-35.3705 110.748   2
  -3  10  -5 203.515 158.084   2
   3  10  -4 8252.64 459.624   2
  -3  10  -4 7562.94 504.876   2
  -3  10  -3 382.545 155.801   2
   3  10  -3 417.024 119.655   2
  -3  10  -2 12087.0 604.024   2
   3  10  -2 12457.7 509.672   2
   3  10  -1 6313.34 339.260   2
  -3  10  -1 6193.17 423.504   2
   3  10   0 4413.29 270.988   2
  -3 -10   0 4305.65 281.472   1
  -3  10   0 4534.87 364.250   2
   3  10   1 6086.12 308.376   2
  -3 -10   1 5361.49 319.307   1
  -3 -10   2 11295.3 478.457   1
  -3 -10   3 331.484 108.216   1
  -3 -10   4 7045.90 402.662   1
  -3  11  -5 8883.11 584.202   2
  -3  11  -4 195.130 145.757   2
  -3  11  -3 3094.73 342.871   2
  -3  11  -2 675.306 169.013   2
  -3  11  -1 7623.09 497.649   2
  -3  11   0 6014.78 431.559   2
  -3  12  -3 74.7735 123.292   2
  -3  12  -2 2012.43 288.217   2
  -3  12  -1 2454.82 307.499   2
  -3  12   0 5636.03 447.033   2
  -3  12   1 1398.88 229.415   2
  -4   0 -12 10660.0 656.659   2
  -4   0 -11 2796.76 327.503   2
  -4   0 -10 5163.06 408.671   2
  -4   0  -9 577.915 149.210   2
  -4   0  -8 18033.0 666.346   2
  -4   0  -7 6762.47 373.136   2
  -4   0  -6 52379.7 1068.01   2
  -4   0  -5 13958.2 456.224   2
  -4   0  -4 272168. 3334.55   2
  -4   0  -3 26796.0 550.597   2
  -4   0  -2 133008. 1672.44   2
  -4   0  -1 2566.15 147.643   1
  -4   0   0 5420.23 198.325   1
   4   0   1 2877.28 149.219   1
   4   0   2 137357. 1781.34   1
   4   0   3 27952.1 562.668   2
  -4   0   3 26377.0 601.773   2
   4   0   4 276960. 3366.42   2
  -4   0   4 273864. 3446.07   2
  -4   0   5 14542.9 500.554   2
   4   0   5 14617.4 467.957   2
   4   0   6 55750.3 1109.65   2
  -4   0   6 55977.2 1166.50   2
   4   0   7 6700.13 367.224   2
  -4  -1 -12 2271.95 326.317   2
  -4   1 -11 3322.06 358.028   2
  -4  -1 -11 3226.85 344.581   2
  -4  -1 -10 2211.60 266.525   2
  -4   1 -10 2341.50 292.765   2
  -4  -1  -9 3611.83 318.368   2
  -4   1  -9 3869.56 338.531   2
  -4   1  -8 4107.34 323.632   2
  -4  -1  -8 4286.58 313.486   2
  -4   1  -7 21421.9 697.306   2
   4   1  -7 22060.5 726.538   2
  -4  -1  -7 20644.6 657.165   2
   4   1  -6 10955.8 465.250   2
  -4   1  -6 10601.4 446.790   2
  -4  -1  -6 11107.8 428.922   2
  -4   1  -5 108498. 1694.11   2
   4   1  -5 108762. 1722.41   2
  -4  -1  -5 108975. 1623.05   2
  -4   1  -4 28413.8 658.701   2
  -4  -1  -4 28924.9 603.872   2
  -4  -1  -3 105312. 1411.40   2
  -4   1  -3 108875. 1525.19   2
  -4  -1  -2 22033.7 396.037   2
  -4   1  -2 21542.1 484.222   2
  -4  -1  -1 19177.2 439.995   1
  -4   1  -1 18783.8 378.358   1
  -4  -1  -1 19325.9 317.055   2
  -4   1   0 163.674 53.5823   1
  -4  -1   0 223.785 80.3792   1
   4   1   1 19672.0 439.936   1
   4  -1   1 19105.2 384.942   1
  -4  -1   2 21923.9 466.733   2
   4  -1   2 22360.0 458.365   1
   4   1   2 21835.6 396.426   2
   4   1   2 22468.0 506.575   1
   4   1   3 110453. 1454.54   2
   4   1   3 111228. 1590.88   1
   4  -1   3 110609. 1564.92   2
  -4  -1   3 110085. 1557.99   2
  -4  -1   4 28351.8 666.951   2
   4  -1   4 29198.3 669.861   2
   4   1   4 28534.6 597.441   2
  -4   1   4 29060.9 695.237   2
  -4  -1   5 114221. 1773.83   2
   4   1   5 110160. 1651.38   2
   4  -1   5 114091. 1739.64   2
  -4   1   5 111793. 1780.06   2
  -4  -1   6 11520.0 477.832   2
   4  -1   6 11687.3 466.351   2
  -4   1   6 12037.1 492.518   2
   4   1   6 11992.6 443.970   2
   4   1   7 21586.1 662.404   2
  -4   2 -11 514.581 205.493   2
  -4  -2 -10 2065.86 268.210   2
  -4   2 -10 3100.74 336.947   2
  -4  -2  -9 2100.67 246.544   2
   4   2  -9 2524.04 288.303   2
  -4   2  -9 2093.87 271.377   2
  -4   2  -8 1846.71 234.107   2
   4   2  -8 1728.91 232.058   2
  -4  -2  -8 1300.06 181.516   2
  -4   2  -7 3189.25 275.784   2
   4   2  -7 3490.56 290.076   2
  -4  -2  -7 3129.24 248.978   2
  -4   2  -6 72780.5 1389.05   2
  -4  -2  -6 71296.7 1264.97   2
   4   2  -6 72520.9 1379.56   2
  -4  -2  -5 5789.03 270.572   2
  -4   2  -5 6499.11 334.308   2
   4   2  -5 5599.81 306.993   2
  -4  -2  -4 108556. 1495.08   2
   4   2  -4 108515. 1632.20   2
  -4   2  -4 108285. 1662.45   2
  -4  -2  -3 11912.8 296.763   2
  -4   2  -3 12405.3 401.840   2
   4   2  -3 11929.1 367.582   2
  -4  -2  -2 27373.5 599.942   1
  -4   2  -2 27989.6 607.931   2
   4   2  -2 27632.4 533.003   2
  -4  -2  -2 27639.8 418.957   2
  -4  -2  -1 3698.12 197.165   1
  -4   2   0 5261.69 148.785   1
  -4  -2   0 5068.29 113.519   2
  -4  -2   0 5700.70 240.999   1
   4  -2   1 4031.12 144.732   1
  -4  -2   1 4105.93 145.028   2
   4   2   1 4237.35 207.607   1
   4   2   2 27363.1 416.113   2
  -4  -2   2 27789.3 529.320   2
   4   2   2 27582.1 602.270   1
  -4  -2   3 12803.6 380.066   2
   4   2   3 12290.3 299.381   2
   4   2   3 12458.6 405.530   1
  -4  -2   4 110455. 1651.27   2
   4   2   4 110934. 1515.74   2
   4   2   4 109879. 1695.06   1
   4  -2   4 112092. 1697.03   2
  -4   2   5 6100.61 330.761   2
  -4  -2   5 5220.20 292.869   2
   4  -2   5 6049.63 321.774   2
   4   2   5 6194.61 274.788   2
  -4  -2   6 73974.3 1403.83   2
  -4   2   6 74753.1 1429.96   2
   4  -2   6 75185.9 1419.60   2
   4   2   6 73664.8 1286.32   2
   4   2   7 3336.78 253.295   2
   4   3 -11 155.885 184.745   2
  -4   3 -11-216.872 173.811   2
   4   3 -10 925.032 209.943   2
  -4   3 -10 1063.92 220.626   2
   4   3  -9 1682.01 240.314   2
  -4   3  -9 1940.93 266.180   2
  -4   3  -8 3195.71 307.587   2
   4   3  -8 3475.49 317.232   2
   4   3  -7-38.3911 103.036   2
  -4   3  -7 102.675 124.075   2
   4   3  -6 2017.54 213.139   2
  -4   3  -6 2075.88 225.195   2
  -4   3  -5 31255.4 805.285   2
   4   3  -5 30092.2 761.554   2
   4   3  -4 14961.3 469.971   2
  -4   3  -4 14860.8 506.809   2
  -4   3  -3 9013.56 367.254   2
   4   3  -3 9017.08 321.218   2
  -4   3  -2 4168.31 239.536   2
   4   3  -2 4144.21 186.393   2
  -4  -3  -2 4155.78 227.664   1
  -4  -3  -1 1550.13 141.642   1
   4   3  -1 1856.00 99.8193   2
  -4  -3   0 1151.23 132.446   1
  -4  -3   1 1757.45 95.4764   2
   4   3   1 1852.00 146.817   1
   4  -3   1 1684.30 80.2742   1
   4   3   2 4461.70 233.805   1
  -4  -3   2 4255.76 185.703   2
   4   3   2 3739.50 106.423   2
   4   3   3 8846.17 235.206   2
  -4  -3   3 8612.00 311.014   2
   4   3   3 9410.55 360.246   1
  -4  -3   4 15066.7 473.315   2
   4   3   4 15406.0 500.585   1
   4   3   4 14558.8 376.826   2
   4   3   5 32072.1 676.064   2
   4   3   5 32136.5 812.592   1
  -4  -3   5 30531.0 773.031   2
   4  -3   5 32146.7 829.574   2
  -4  -3   6 2674.27 236.919   2
   4   3   6 2595.48 192.014   2
   4   3   7 142.698 89.9519   2
   4   4 -11 164.662 141.510   2
  -4   4 -10 7083.17 515.783   2
   4   4 -10 6018.58 483.552   2
  -4   4  -9 772.438 197.580   2
   4   4  -9 709.619 186.168   2
  -4   4  -8 13620.9 639.511   2
   4   4  -8 14552.3 643.785   2
   4   4  -7 728.293 153.188   2
  -4   4  -7 606.590 153.107   2
  -4   4  -6 412.738 136.054   2
   4   4  -6 296.524 109.635   2
  -4   4  -5 4571.26 314.906   2
   4   4  -5 5146.48 302.731   2
  -4   4  -4 9394.63 420.526   2
   4   4  -4 10101.4 391.217   2
   4   4  -3 1992.43 156.824   2
  -4   4  -3 1858.99 187.665   2
   4   4  -2 17275.7 418.303   2
  -4  -4  -2 15986.4 479.826   1
  -4   4  -2 17183.5 527.940   2
   4   4  -1 2407.16 123.000   2
  -4  -4  -1 2232.96 171.603   1
   4   4   0 45482.6 604.998   2
  -4  -4   0 44205.1 853.343   1
  -4  -4   1 2293.75 118.648   2
   4   4   2 15323.3 267.173   2
   4   4   2 17564.1 501.974   1
  -4  -4   2 16719.6 405.841   2
  -4  -4   3 1933.31 155.228   2
   4   4   3 2070.50 181.563   1
   4   4   3 1992.05 107.628   2
  -4  -4   4 9155.51 369.693   2
   4   4   4 9820.24 296.166   2
   4   4   4 9012.06 392.192   1
   4   4   5 5477.42 249.175   2
  -4  -4   5 5027.00 297.415   2
   4   4   5 5240.97 313.529   1
  -4  -4   6 234.441 96.2437   2
   4   4   6 307.079 80.8166   2
   4   4   7 561.768 119.995   2
  -4   5 -10 1105.95 249.157   2
   4   5 -10 1477.10 250.966   2
  -4   5  -9 11906.6 652.758   2
   4   5  -9 11204.4 617.211   2
  -4   5  -8 2957.39 316.880   2
   4   5  -8 2300.62 268.525   2
  -4   5  -7 9367.75 520.868   2
   4   5  -7 9675.58 506.205   2
  -4   5  -6 3774.80 315.406   2
   4   5  -6 3845.59 293.765   2
  -4   5  -5 1936.55 226.175   2
   4   5  -5 1705.15 195.820   2
  -4   5  -4 134.604 98.6820   2
   4   5  -4 268.034 87.2126   2
   4   5  -3 2092.14 169.259   2
  -4   5  -3 2140.94 214.268   2
   4   5  -2 9323.58 311.118   2
  -4  -5  -2 9031.25 366.899   1
  -4   5  -2 9248.64 404.849   2
  -4  -5  -1 26659.2 652.084   1
   4   5  -1 27315.1 516.741   2
   4   5   0 7126.19 197.620   2
  -4  -5   0 6538.68 303.070   1
   4   5   1 25296.1 395.046   2
  -4  -5   1 24451.5 629.370   1
  -4  -5   2 9565.21 315.131   2
   4   5   2 9369.95 376.405   1
   4   5   2 9020.99 212.175   2
   4   5   3 2156.13 192.600   1
  -4  -5   3 2122.21 167.852   2
   4   5   3 2085.11 113.286   2
  -4  -5   4 272.815 80.4535   2
   4   5   4 405.580 108.210   1
   4   5   4 236.076 60.6723   2
  -4  -5   5 1729.32 181.934   2
   4   5   5 1402.11 132.706   2
   4   5   5 1969.78 214.644   1
   4   5   6 3402.02 225.727   2
   4   5   7 8272.80 384.993   2
   4   6 -10 5464.86 468.577   2
  -4   6  -9 1944.49 288.699   2
   4   6  -9 2472.39 313.876   2
  -4   6  -8 14697.2 715.583   2
   4   6  -8 14644.2 680.814   2
  -4   6  -7 2701.45 308.607   2
   4   6  -7 2994.46 292.975   2
  -4   6  -6 19134.1 741.565   2
   4   6  -6 20032.3 695.070   2
  -4   6  -5 335.612 133.767   2
   4   6  -5 156.111 98.5337   2
  -4   6  -4 18342.2 661.711   2
   4   6  -4 18659.5 580.339   2
  -4   6  -3 5704.72 349.239   2
   4   6  -3 6183.78 297.180   2
   4   6  -2 38966.9 752.944   2
  -4  -6  -2 35982.6 831.566   1
  -4   6  -2 37030.4 919.113   2
   4   6  -1 3122.76 171.915   2
  -4  -6  -1 3324.74 228.061   1
  -4  -6   0 40534.1 873.931   1
   4   6   0 42329.0 677.765   2
   4   6   1 3415.61 140.315   2
  -4  -6   1 3113.08 219.744   1
  -4   6   2 32943.3 467.865   1
  -4   6   3 6291.91 215.530   1
   4   6   3 5781.76 320.328   1
  -4  -6   3 5758.10 291.952   2
   4   6   3 6148.17 212.045   2
   4   6   4 18510.8 621.526   1
   4   6   4 18437.8 443.699   2
  -4  -6   4 17677.4 572.254   2
   4   6   5 141.165 62.9748   2
  -4  -6   5-20.7422 86.3907   2
   4   6   6 19812.6 563.582   2
   4   6   7 2623.68 220.571   2
  -4   7  -9 10308.2 644.101   2
   4   7  -9 9075.94 585.457   2
  -4   7  -8 3456.97 367.811   2
   4   7  -8 3890.54 359.882   2
   4   7  -7 8483.80 499.963   2
  -4   7  -7 8598.92 537.483   2
  -4   7  -6 1029.97 196.897   2
   4   7  -6 1031.72 179.303   2
   4   7  -5 8500.77 426.582   2
  -4   7  -5 7550.63 460.416   2
   4   7  -4 7617.99 378.184   2
  -4   7  -4 7242.74 435.653   2
   4   7  -3 7407.95 342.686   2
  -4   7  -3 7999.88 437.618   2
   4   7  -2 5704.67 275.699   2
  -4   7  -2 5780.04 365.148   2
   4   7  -1 22202.2 523.908   2
  -4  -7  -1 20856.2 614.714   1
  -4  -7   0 5313.93 299.144   1
   4   7   0 5135.44 217.140   2
  -4  -7   1 21069.5 622.722   1
   4   7   1 21761.9 451.776   2
   4   7   2 5446.76 203.270   2
  -4  -7   2 4998.81 303.187   1
   4   7   3 7975.07 265.545   2
   4   7   3 7811.61 389.985   1
  -4   7   3 7547.37 228.090   1
   4   7   4 7418.16 398.787   1
   4   7   4 7877.74 286.117   2
  -4   7   4 7412.47 280.533   1
   4   7   5 7752.93 315.674   2
   4   7   6 908.326 132.122   2
   4   8  -9 767.815 203.891   2
  -4   8  -8 10887.6 656.163   2
   4   8  -8 9864.83 588.866   2
  -4   8  -7 1527.07 261.839   2
   4   8  -7 2199.66 278.466   2
   4   8  -6 14963.3 634.712   2
  -4   8  -6 14720.6 698.141   2
   4   8  -5 3792.78 304.389   2
  -4   8  -5 4044.55 359.556   2
   4   8  -4 9732.33 448.914   2
  -4   8  -4 9419.67 517.182   2
  -4   8  -3 746.013 171.162   2
   4   8  -3 567.482 121.809   2
  -4   8  -2 13670.5 589.816   2
   4   8  -2 12797.4 446.613   2
   4   8  -1 3365.00 208.371   2
  -4  -8  -1 2813.52 230.230   1
   4   8   0 32107.5 654.319   2
  -4  -8   0 29694.4 780.712   1
  -4  -8   1 2937.02 237.748   1
   4   8   1 3321.93 180.150   2
   4   8   2 13465.8 363.423   2
  -4  -8   2 11616.8 486.504   1
   4   8   3 594.817 84.7863   2
   4   8   4 9929.00 337.766   2
   4   9  -8 533.075 187.603   2
  -4   9  -7 3152.97 361.253   2
   4   9  -7 3037.85 321.629   2
  -4   9  -6 2108.83 304.616   2
   4   9  -6 2757.82 293.108   2
   4   9  -5 14057.2 603.477   2
  -4   9  -5 14056.5 689.670   2
  -4   9  -4 558.321 168.518   2
   4   9  -4 396.000 131.110   2
   4   9  -3 4313.32 293.398   2
  -4   9  -3 4032.87 353.285   2
   4   9  -2 1169.17 148.388   2
  -4   9  -2 1048.30 188.822   2
  -4  -9  -1 1868.90 197.298   1
  -4   9  -1 1470.58 219.850   2
   4   9  -1 1725.42 159.140   2
   4   9   0 1173.08 124.994   2
  -4  -9   0 986.636 151.312   1
   4   9   1 1606.82 142.312   2
  -4  -9   1 1811.76 198.602   1
   4   9   2 1172.14 116.579   2
  -4  -9   2 1117.13 174.843   1
   4   9   3 4125.46 216.010   2
  -4  -9   3 3964.04 299.836   1
   4  10  -8 434.372 203.511   2
   4  10  -7-70.6323 126.885   2
  -4  10  -6 730.547 189.577   2
   4  10  -6 544.029 159.014   2
  -4  10  -5 728.378 189.829   2
   4  10  -5 920.523 180.675   2
   4  10  -4 4464.90 328.677   2
  -4  10  -4 4207.18 388.811   2
  -4  10  -3-74.2965 127.926   2
   4  10  -3 22.0304 90.2299   2
  -4  10  -2 1279.43 225.778   2
   4  10  -2 1219.02 157.352   2
   4  10  -1 119.248 82.2498   2
  -4  10  -1-28.5435 131.596   2
  -4 -10   0 352.605 125.274   1
  -4 -10   1 234.264 85.6444   1
  -4 -10   2 1013.37 168.810   1
  -4 -10   3-165.908 102.337   1
  -4 -10   4 4135.02 330.140   1
  -4  11  -4 419.229 190.930   2
  -4  11  -3 926.957 228.056   2
  -4  11  -2 1447.00 241.309   2
  -4  11  -1 739.420 175.167   2
  -4  11   0-145.580 162.760   2
  -4  12  -3-182.319 159.773   2
  -4  12  -2 4077.05 392.614   2
  -4  12  -1 291.616 137.919   2
  -4  12   0 9903.30 596.134   2
  -4  12   1 427.839 169.623   2
  -5   0 -12 127.286 141.199   2
  -5   0 -11-87.1689 137.755   2
  -5   0 -10 190.131 140.890   2
  -5   0  -9 11.0233 111.060   2
  -5   0  -8 17.7828 100.457   2
  -5   0  -7 191.404 96.4989   2
  -5   0  -6-60.9175 78.0622   2
  -5   0  -5-55.1196 76.6874   2
  -5   0  -4 104.622 73.8893   2
  -5   0  -3 5.55226 62.8100   2
  -5   0  -2 14.7314 65.4862   2
  -5   0  -1 30.0787 69.2138   1
  -5   0   0 32.4203 67.3260   1
   5   0   1-42.1772 55.5762   1
   5   0   2 42.0555 63.9358   1
   5   0   3-12.2458 64.7873   1
  -5   0   3 36.0892 67.4286   2
   5   0   4 26.1399 55.5459   2
  -5   0   4-102.838 78.9270   2
   5   0   5-48.4906 65.5098   2
  -5   0   5 44.5110 84.6436   2
   5   0   6 25.5699 78.8298   2
  -5   0   6 72.0134 72.2411   2
   5   0   7-52.3400 87.8809   2
  -5  -1 -12 1253.41 241.039   2
  -5  -1 -11 999.072 214.669   2
  -5   1 -11 639.055 209.947   2
  -5  -1 -10 1181.23 213.148   2
  -5   1 -10 1596.06 247.270   2
  -5  -1  -9 2853.30 284.669   2
  -5   1  -9 3424.94 320.586   2
  -5   1  -8 11035.6 529.698   2
  -5  -1  -8 11466.6 511.313   2
  -5   1  -7 10922.8 493.281   2
  -5  -1  -7 11542.1 476.522   2
  -5  -1  -6 703.659 119.750   2
  -5   1  -6 959.632 147.277   2
  -5   1  -5 2385.01 199.916   2
  -5  -1  -5 2240.53 174.800   2
  -5   1  -4 12724.3 423.389   2
  -5  -1  -4 13340.1 385.770   2
  -5   1  -3 28235.0 624.625   2
  -5  -1  -3 28182.2 543.116   2
  -5  -1  -2 1048.56 125.682   1
  -5   1  -2 1081.65 122.715   2
  -5  -1  -2 1046.82 84.2486   2
  -5   1  -1 22594.2 462.043   1
  -5  -1  -1 23343.3 527.149   1
  -5  -1   0 6168.99 254.813   1
  -5   1   0 6668.21 223.399   1
   5  -1   1 23114.9 470.615   1
   5   1   1 23463.3 527.360   1
   5  -1   2 1177.61 108.936   1
  -5  -1   2 926.820 101.394   2
   5   1   2 1011.67 119.379   1
  -5  -1   3 28336.2 630.271   2
   5   1   3 29525.3 554.975   2
   5   1   3 28767.8 662.495   1
   5  -1   3 28565.4 617.921   1
  -5  -1   4 13238.5 442.499   2
   5   1   4 13624.7 389.400   2
   5   1   4 13078.0 450.594   1
   5  -1   4 13198.6 437.974   2
  -5   1   4 13025.7 463.069   2
  -5  -1   5 2854.49 225.088   2
   5   1   5 2861.56 199.248   2
   5  -1   5 3131.30 229.140   2
  -5   1   5 2863.67 234.632   2
   5   1   6 1236.40 147.648   2
   5  -1   6 1161.18 165.165   2
  -5   1   6 996.213 150.754   2
  -5  -1   6 1303.37 169.163   2
   5   1   7 12304.4 491.086   2
  -5  -2 -11 3155.05 343.212   2
  -5   2 -11 2806.10 343.907   2
  -5   2 -10 8833.38 555.941   2
  -5  -2 -10 9490.41 530.026   2
  -5   2  -9 10057.8 558.827   2
  -5  -2  -9 11105.9 536.146   2
  -5   2  -8 4493.46 352.483   2
  -5  -2  -8 3717.94 293.942   2
   5   2  -7 5997.49 374.758   2
  -5  -2  -7 5928.16 329.996   2
  -5   2  -7 5893.06 383.796   2
  -5   2  -6 13268.2 527.529   2
  -5  -2  -6 12649.8 447.124   2
   5   2  -6 12756.4 517.221   2
  -5   2  -5 1768.36 189.742   2
   5   2  -5 1384.50 168.566   2
  -5  -2  -5 1539.91 141.457   2
  -5  -2  -4 37564.8 700.388   2
  -5   2  -4 39467.4 851.381   2
   5   2  -4 39517.2 824.880   2
  -5  -2  -3 14889.1 339.410   2
  -5   2  -3 15492.8 469.211   2
  -5  -2  -2 26255.6 610.814   1
  -5   2  -2 26050.3 605.829   2
  -5  -2  -2 25339.9 401.841   2
  -5  -2  -1 26635.3 365.877   2
  -5  -2  -1 30261.7 633.451   1
  -5   2   0 27971.0 474.162   1
  -5  -2   0 27441.2 403.414   2
  -5  -2   0 26534.1 602.450   1
   5  -2   1 29924.2 522.848   1
  -5  -2   1 29648.2 501.198   2
   5   2   1 30620.0 652.726   1
  -5  -2   2 25812.2 521.895   2
   5   2   2 26314.5 621.548   1
   5  -2   2 26202.4 517.717   1
  -5  -2   3 15205.4 430.125   2
   5   2   3 15716.2 346.783   2
   5   2   3 16105.2 489.551   1
  -5  -2   4 39618.4 833.343   2
   5   2   4 39224.5 709.992   2
   5   2   4 40270.8 874.677   1
   5   2   5 1446.04 170.789   1
   5   2   5 1559.02 143.455   2
  -5  -2   5 1404.26 159.669   2
   5  -2   5 1382.24 163.243   2
  -5   2   5 1292.49 166.369   2
   5   2   6 14578.5 478.358   2
   5  -2   6 14118.5 548.973   2
  -5  -2   6 14557.8 550.987   2
   5   2   7 5960.61 330.653   2
  -5   3 -11 11770.1 690.706   2
  -5   3 -10 8692.37 561.423   2
  -5   3  -9 11046.2 596.455   2
   5   3  -9 10658.9 590.372   2
  -5   3  -8 13212.8 615.719   2
   5   3  -8 13264.6 613.708   2
  -5   3  -7 13163.8 580.780   2
   5   3  -7 13283.2 571.027   2
  -5  -3  -7 12663.3 481.938   2
  -5   3  -6 3348.82 270.989   2
  -5  -3  -6 2896.35 206.603   2
   5   3  -6 3227.51 262.895   2
   5   3  -5 35983.9 847.886   2
  -5   3  -5 34972.6 883.037   2
  -5  -3  -5 34658.9 708.983   2
  -5   3  -4 189.558 109.054   2
  -5  -3  -4 129.961 47.7051   2
   5   3  -4 57.4111 73.6920   2
   5   3  -3 74102.2 1167.49   2
  -5   3  -3 71849.2 1279.51   2
   5   3  -2 30879.4 583.936   2
  -5  -3  -2 30239.5 698.252   1
  -5  -3  -1 37600.4 774.654   1
  -5  -3   0 34929.1 741.061   1
  -5   3   0 36105.5 517.729   1
  -5  -3   1 39088.6 592.098   2
   5  -3   1 38022.1 580.002   1
   5   3   1 39398.1 798.884   1
  -5  -3   2 30420.1 577.217   2
   5   3   2 31440.0 712.105   1
   5  -3   2 30727.1 548.193   1
  -5  -3   3 73600.7 1159.55   2
   5   3   3 73882.5 1276.40   1
   5   3   3 72232.9 962.208   2
   5   3   4 149.600 53.7773   2
   5   3   4 209.121 90.0118   1
  -5  -3   4 131.041 76.7845   2
   5   3   5 35009.5 710.776   2
   5   3   5 37286.5 908.010   1
  -5  -3   5 36805.9 862.462   2
  -5  -3   6 3241.48 258.922   2
   5   3   6 3550.72 225.321   2
   5   3   7 13532.0 494.743   2
  -5   4 -10 8714.27 581.873   2
   5   4 -10 8636.72 569.623   2
  -5   4  -9 7492.94 503.781   2
   5   4  -9 6754.95 470.851   2
  -5   4  -8 12627.5 622.420   2
   5   4  -8 13768.6 629.532   2
  -5   4  -7 9678.17 518.960   2
   5   4  -7 10479.6 508.571   2
   5   4  -6 21391.1 692.726   2
  -5   4  -6 21852.2 741.538   2
  -5   4  -5 2475.99 239.902   2
   5   4  -5 3086.48 238.894   2
   5   4  -4 30687.1 724.219   2
  -5   4  -4 29543.7 799.683   2
   5   4  -3 18080.0 481.379   2
  -5   4  -3 17216.2 571.203   2
  -5  -4  -2 51280.4 1007.51   1
   5   4  -2 53495.6 856.068   2
   5   4  -1 38418.9 599.040   2
  -5  -4  -1 37386.6 806.641   1
  -5  -4   0 21889.7 583.438   1
  -5  -4   1 37489.3 573.840   2
  -5   4   1 34231.5 483.202   1
  -5  -4   2 50685.2 839.090   2
   5   4   2 53402.4 1024.91   1
   5  -4   2 52240.1 761.002   1
   5   4   3 17756.1 556.899   1
   5   4   3 17227.0 317.740   2
  -5  -4   3 17424.8 471.329   2
   5   4   4 30205.7 555.832   2
  -5  -4   4 30126.8 718.523   2
   5   4   4 31512.8 798.621   1
   5   4   5 2777.69 171.592   2
  -5  -4   5 2317.05 213.232   2
   5   4   5 3015.69 249.786   1
   5   4   6 21169.1 569.034   2
  -5  -4   6 22188.7 706.603   2
   5   4   7 10162.5 420.950   2
   5   4   8 12503.5 512.335   2
   5   5 -10 11558.6 663.515   2
  -5   5 -10 11336.1 678.339   2
  -5   5  -9 2615.54 324.992   2
   5   5  -9 2366.62 291.137   2
  -5   5  -8 8745.44 536.519   2
   5   5  -8 8763.29 514.965   2
  -5   5  -7 9104.66 517.978   2
   5   5  -7 9071.65 487.076   2
  -5   5  -6 1170.13 200.555   2
   5   5  -6 1358.36 189.643   2
  -5   5  -5 29414.8 869.316   2
   5   5  -5 29947.1 789.119   2
  -5   5  -4 259.469 123.681   2
   5   5  -4 828.749 129.324   2
  -5   5  -3 14620.0 552.613   2
   5   5  -3 14971.4 448.067   2
   5   5  -2 13555.4 373.944   2
  -5  -5  -2 12422.5 456.978   1
   5   5  -1 32707.3 557.322   2
  -5  -5  -1 31098.3 750.529   1
   5   5   0 27784.5 419.335   2
  -5  -5   0 27442.3 696.452   1
  -5  -5   1 29351.9 731.203   1
  -5  -5   2 12830.4 366.510   2
   5   5   2 13438.3 483.873   1
   5  -5   2 12674.8 269.895   1
   5   5   3 15399.5 533.492   1
  -5  -5   3 14697.1 442.278   2
   5   5   3 14282.0 278.730   2
   5   5   4 795.563 141.523   1
  -5  -5   4 723.289 123.095   2
   5   5   4 620.145 73.2430   2
   5   5   5 30881.8 628.531   2
  -5  -5   5 28735.8 777.788   2
   5   5   6 1029.07 126.591   2
   5   5   7 8789.21 385.600   2
   5   6 -10 2158.12 312.474   2
   5   6  -9 3208.78 351.602   2
  -5   6  -9 3259.46 374.857   2
  -5   6  -8 3931.24 374.817   2
   5   6  -8 3427.89 337.393   2
  -5   6  -7 815.586 171.242   2
   5   6  -7 866.845 178.182   2
  -5   6  -6 5342.08 392.234   2
   5   6  -6 5414.59 357.383   2
  -5   6  -5 1303.45 194.859   2
   5   6  -5 1148.60 162.945   2
  -5   6  -4 7265.34 422.023   2
   5   6  -4 7969.23 365.478   2
   5   6  -3 5198.07 269.251   2
  -5   6  -3 5014.15 344.128   2
   5   6  -2 13901.3 401.114   2
  -5  -6  -2 12782.5 482.677   1
  -5   6  -2 13129.2 533.829   2
   5   6  -1 17901.6 408.439   2
  -5  -6  -1 16663.1 550.130   1
   5   6   0 5492.54 172.672   2
  -5  -6   0 5080.00 295.742   1
   5   6   1 16046.4 270.423   2
  -5  -6   1 16914.1 550.656   1
   5   6   2 10702.5 195.367   2
   5   6   3 5710.91 331.278   1
  -5  -6   3 5398.42 273.525   2
   5   6   3 4973.11 157.209   2
   5   6   4 7296.24 233.923   2
  -5  -6   4 7147.29 350.637   2
  -5  -6   5 1334.77 174.119   2
   5   6   5 1141.97 111.931   2
   5   6   6 4997.08 256.976   2
   5   7  -9 95.5772 147.613   2
  -5   7  -8 931.408 208.077   2
   5   7  -8 942.468 202.128   2
  -5   7  -7 8676.73 547.716   2
   5   7  -7 8487.59 493.493   2
  -5   7  -6 4988.74 400.311   2
   5   7  -6 4494.01 339.241   2
  -5   7  -5 134.677 123.907   2
   5   7  -5 178.153 110.635   2
  -5   7  -4 8201.71 469.758   2
   5   7  -4 8639.29 396.637   2
   5   7  -3 7852.02 347.804   2
  -5   7  -3 7477.02 434.444   2
   5   7  -2 5474.15 259.666   2
  -5  -7  -2 5059.86 316.039   1
  -5   7  -2 5023.35 349.894   2
   5   7  -1 2541.57 157.956   2
  -5  -7  -1 1867.21 190.926   1
  -5  -7   0 9023.20 411.708   1
   5   7   0 9665.93 269.626   2
   5   7   1 2298.52 107.622   2
  -5  -7   1 2372.92 213.737   1
  -5  -7   2 4266.48 293.518   1
   5   7   2 4613.51 144.964   2
   5   7   3 7442.15 211.295   2
   5  -7   3 7160.86 206.434   1
   5   7   3 8026.66 414.345   1
   5   7   4 8780.58 265.421   2
  -5   7   4 8325.12 287.778   1
  -5  -7   4 8317.57 394.307   2
   5   7   5 66.6246 48.0072   2
   5   8  -9 1373.82 243.668   2
  -5   8  -8 4139.41 424.708   2
   5   8  -8 4099.07 385.236   2
  -5   8  -7 1432.13 254.869   2
   5   8  -7 1074.83 209.674   2
   5   8  -6 4016.99 330.490   2
  -5   8  -6 4157.87 394.028   2
   5   8  -5 6434.58 383.862   2
  -5   8  -5 6728.71 468.333   2
  -5   8  -4 492.208 170.179   2
   5   8  -4 208.204 96.2606   2
   5   8  -3 3342.33 239.001   2
  -5   8  -3 3444.50 316.102   2
   5   8  -2 7532.61 323.692   2
  -5   8  -2 7449.03 448.523   2
   5   8  -1 2388.86 165.039   2
  -5  -8  -1 2667.75 243.137   1
   5   8   0 4780.52 205.603   2
  -5  -8   0 4639.70 307.078   1
   5   8   1 2579.15 133.138   2
  -5  -8   1 2336.51 221.910   1
   5   8   2 6635.43 204.083   2
  -5  -8   2 6839.20 383.882   1
   5   8   3 3600.76 153.296   2
   5   9  -8 547.212 195.992   2
  -5   9  -7 5675.29 484.374   2
   5   9  -7 6796.71 512.656   2
  -5   9  -6 2765.52 336.750   2
   5   9  -6 3168.79 316.558   2
  -5   9  -5 4588.69 407.465   2
   5   9  -5 4658.10 344.880   2
   5   9  -4 8351.22 426.570   2
  -5   9  -4 7390.47 497.470   2
   5   9  -3 5038.02 302.603   2
  -5   9  -3 4412.69 374.245   2
  -5   9  -2 1750.33 242.840   2
   5   9  -2 1702.56 166.512   2
   5   9  -1 14839.0 445.561   2
  -5  -9  -1 13583.0 545.017   1
  -5   9  -1 13477.9 633.519   2
   5   9   0 1898.21 141.484   2
  -5  -9   0 1705.22 201.597   1
  -5  -9   1 13728.2 560.697   1
   5   9   1 14292.6 364.462   2
  -5  -9   2 1230.27 180.197   1
  -5  -9   3 4239.46 326.996   1
   5  10  -7 2691.42 314.036   2
   5  10  -6 9280.46 527.094   2
   5  10  -5 5544.67 383.280   2
  -5  10  -5 5659.43 479.222   2
  -5  10  -4 2552.72 303.490   2
   5  10  -4 2861.60 266.179   2
  -5  10  -3 4521.32 397.639   2
  -5  10  -2 5824.10 442.831   2
  -5 -10  -1 378.810 108.783   1
  -5  10  -1 289.996 129.906   2
  -5 -10   0 11869.1 527.883   1
  -5 -10   1 237.369 111.833   1
  -5 -10   2 5582.28 374.558   1
  -5 -10   3 4273.75 341.788   1
  -5 -10   4 2984.12 297.803   1
  -5  11  -4 3644.64 389.483   2
  -5  11  -3 2972.13 352.426   2
  -5  11  -2 487.546 174.492   2
  -5  11  -1 8058.23 534.432   2
  -5  11   0 358.698 172.667   2
  -5  12  -1 328.872 185.677   2
  -5  12   0 2613.51 328.515   2
  -6   0 -12 6151.20 501.285   2
  -6   0 -11 3597.20 370.214   2
  -6   0 -10 14489.1 684.075   2
  -6   0  -9 19114.0 740.294   2
  -6   0  -8 1279.46 194.471   2
  -6   0  -7 49260.6 1107.80   2
  -6   0  -6 33604.9 825.700   2
  -6   0  -5 5462.87 285.914   2
  -6   0  -4 73164.4 1201.11   2
  -6   0  -3 56991.2 954.397   2
  -6   0  -2 28035.8 619.500   1
  -6   0  -2 28103.2 564.764   2
  -6   0  -1 90692.1 1333.36   1
  -6   0   0 19204.0 471.125   1
   6   0   1 90567.2 1334.25   1
   6   0   2 28581.5 631.737   1
   6   0   3 59629.2 1056.90   1
  -6   0   4 75181.1 1312.55   2
   6   0   4 75590.0 1303.80   1
   6   0   5 6139.71 329.019   1
   6   0   5 5983.18 299.307   2
  -6   0   5 6142.98 337.317   2
   6   0   6 36972.2 873.743   2
  -6   0   6 36074.9 931.201   2
   6   0   7 51776.9 1138.86   2
  -6  -1 -12 2452.44 321.758   2
  -6   1 -11 11108.7 646.999   2
  -6  -1 -11 9476.62 577.139   2
  -6  -1 -10 1832.50 260.498   2
  -6   1 -10 1746.75 271.768   2
  -6   1  -9 18208.7 739.839   2
  -6  -1  -9 16746.3 677.814   2
  -6   1  -8 10139.8 511.205   2
  -6  -1  -8 9271.08 468.115   2
  -6  -1  -7 11728.3 481.330   2
  -6   1  -7 10873.8 493.172   2
  -6  -1  -6 36890.7 849.300   2
  -6   1  -6 37393.5 914.203   2
  -6  -1  -5 23813.6 602.402   2
  -6   1  -5 24078.2 666.913   2
  -6  -1  -4 17300.2 457.654   2
  -6   1  -4 17661.8 522.170   2
  -6  -1  -3 85268.0 1217.30   2
  -6   1  -3 86640.0 1343.99   2
  -6  -1  -2 64658.2 924.964   2
  -6  -1  -2 64596.4 1101.26   1
  -6   1  -2 63562.4 1053.73   2
  -6   1  -1 68829.9 1038.06   1
  -6  -1  -1 67042.8 1110.43   1
  -6   1   0 11855.4 335.813   1
  -6  -1   0 11818.2 380.410   1
   6  -1   1 67138.1 1027.52   1
   6   1   1 66664.5 1108.35   1
   6  -1   2 67512.2 1076.37   1
   6   1   2 67824.9 1145.31   1
  -6  -1   3 88965.7 1379.13   2
   6  -1   3 89448.7 1378.18   1
   6   1   3 90890.6 1444.30   1
   6  -1   4 18088.7 529.139   1
   6   1   4 17947.9 467.594   2
   6   1   4 18286.3 562.488   1
  -6  -1   4 17810.0 539.902   2
  -6   1   5 24346.4 710.446   2
   6   1   5 24680.1 618.337   2
   6   1   5 25228.3 712.001   1
   6  -1   5 26494.9 697.264   2
  -6  -1   5 25187.3 706.453   2
  -6  -1   6 40166.3 976.814   2
   6   1   6 38482.5 870.479   2
   6  -1   6 39261.5 937.653   2
   6   1   7 12518.0 498.339   2
  -6  -2 -11 3062.90 340.870   2
  -6   2 -11 3012.27 354.992   2
  -6   2 -10 4636.46 418.961   2
  -6  -2 -10 4542.85 378.196   2
  -6   2  -9 2112.20 271.039   2
  -6  -2  -9 2206.59 246.940   2
  -6   2  -8 5339.88 382.796   2
  -6  -2  -8 5013.52 331.264   2
  -6   2  -7 16825.7 644.164   2
  -6  -2  -7 16511.9 562.315   2
  -6   2  -6 5870.24 355.381   2
  -6  -2  -6 5709.88 296.887   2
  -6  -2  -5 30469.9 667.811   2
  -6   2  -5 30348.8 789.095   2
  -6  -2  -4 5210.87 224.053   2
  -6   2  -4 5364.80 299.670   2
  -6  -2  -3 48574.4 749.826   2
  -6   2  -3 49598.5 970.109   2
  -6  -2  -2 24843.5 410.519   2
  -6  -2  -2 24655.2 622.555   1
  -6  -2  -1 19406.4 530.214   1
  -6   2  -1 19533.8 426.565   1
  -6  -2  -1 19381.5 317.986   2
  -6   2   0 18988.9 408.055   1
  -6  -2   0 18409.2 512.140   1
   6  -2   1 20129.2 435.688   1
   6   2   1 20960.7 553.809   1
  -6  -2   1 19849.7 404.655   2
   6   2   2 26139.6 643.827   1
  -6  -2   2 24720.8 525.761   2
   6  -2   2 25179.2 534.553   1
  -6  -2   3 50107.4 908.615   2
   6  -2   3 49931.5 891.381   1
   6   2   3 50047.2 993.792   1
  -6  -2   4 5451.93 287.226   2
   6   2   4 5704.80 233.577   2
   6   2   4 5374.33 306.430   1
  -6  -2   5 30988.7 785.583   2
   6   2   5 30544.0 669.839   2
   6   2   5 30529.8 813.011   1
  -6  -2   6 5843.34 346.722   2
   6   2   6 5738.19 297.886   2
   6   2   7 16191.6 554.564   2
  -6   3 -11 3586.14 391.617   2
  -6   3 -10 2587.85 330.167   2
  -6   3  -9 1071.59 219.654   2
  -6  -3  -8 14106.8 549.700   2
  -6   3  -8 15148.3 665.639   2
  -6  -3  -7 5145.53 301.741   2
  -6   3  -7 5034.31 369.373   2
   6   3  -7 5268.69 360.834   2
   6   3  -6 6332.62 368.082   2
  -6   3  -6 5903.17 372.647   2
  -6  -3  -6 6226.57 298.376   2
  -6   3  -5 17056.0 604.036   2
   6   3  -5 17296.6 569.500   2
  -6  -3  -5 17268.8 460.551   2
  -6   3  -4 4540.02 291.267   2
   6   3  -4 4828.71 267.921   2
  -6  -3  -4 5201.69 204.193   2
  -6   3  -3 8107.74 374.930   2
  -6  -3  -3 7967.66 207.865   2
  -6  -3  -2 33326.4 767.314   1
  -6  -3  -1 2616.51 200.686   1
  -6  -3   0 476.918 110.958   1
  -6  -3   0 366.822 33.3737   2
  -6   3   0 571.797 65.0608   1
  -6  -3   1 2606.85 121.775   2
  -6  -3   2 33451.2 628.774   2
   6   3   2 34986.4 794.218   1
   6  -3   2 33797.8 615.853   1
   6   3   3 8030.17 369.824   1
  -6  -3   3 7775.15 303.486   2
   6  -3   3 7969.01 289.380   1
  -6  -3   4 4798.90 264.910   2
   6   3   4 4894.67 196.959   2
   6   3   4 5265.71 313.671   1
  -6  -3   5 18134.2 579.396   2
   6   3   5 17056.9 455.000   2
   6   3   5 18725.8 632.658   1
  -6  -3   6 6238.16 367.390   2
   6   3   6 6321.74 295.776   2
   6   3   7 5271.19 301.421   2
   6   3   8 14340.8 548.441   2
  -6   4 -10 898.061 224.288   2
  -6   4  -9 2426.58 301.552   2
   6   4  -9 2172.22 282.848   2
  -6   4  -8 1487.87 236.044   2
   6   4  -8 1742.40 238.025   2
  -6   4  -7 8462.27 490.559   2
   6   4  -7 9398.05 488.378   2
  -6   4  -6 1253.14 195.038   2
   6   4  -6 1358.12 189.942   2
  -6   4  -5 167.150 116.292   2
   6   4  -5 151.199 89.3916   2
  -6   4  -4 959.673 156.686   2
   6   4  -4 864.701 122.185   2
  -6   4  -3 13055.6 505.558   2
   6   4  -3 13247.3 409.017   2
  -6  -4  -2 2642.26 215.556   1
   6   4  -2 2562.09 152.873   2
  -6  -4  -1 7906.70 358.232   1
  -6  -4   0 6473.99 323.599   1
  -6  -4   1 8374.61 220.938   2
  -6   4   1 7709.42 197.264   1
   6  -4   2 2669.89 136.079   1
  -6  -4   2 2709.08 154.429   2
   6   4   2 2969.37 222.757   1
  -6  -4   3 13074.9 406.028   2
   6   4   3 13813.8 505.539   1
   6  -4   3 13339.1 369.291   1
  -6  -4   4 1129.50 140.550   2
   6   4   4 1084.24 86.7781   2
   6   4   4 1268.71 158.783   1
  -6  -4   5 173.639 89.6069   2
   6   4   5 68.9744 51.9473   2
   6   4   6 1079.30 124.115   2
   6   4   7 9650.21 403.029   2
   6   4   8 1524.38 189.145   2
  -6   5 -10 4972.69 465.506   2
   6   5 -10 4542.28 427.159   2
  -6   5  -9 2992.42 351.044   2
   6   5  -9 2733.84 320.240   2
  -6   5  -8 1595.68 245.690   2
   6   5  -8 1796.34 244.728   2
  -6   5  -7 5465.46 414.150   2
   6   5  -7 5224.31 371.721   2
  -6   5  -6 3061.66 304.484   2
   6   5  -6 2857.25 260.329   2
  -6   5  -5 17718.2 674.976   2
   6   5  -5 18501.9 604.592   2
  -6   5  -4 3218.02 275.938   2
   6   5  -4 3882.30 250.279   2
  -6   5  -3 8714.17 433.263   2
   6   5  -3 8719.58 334.300   2
   6   5  -2 10006.3 313.206   2
  -6  -5  -2 9635.81 420.489   1
  -6  -5  -1 13573.0 496.247   1
   6   5  -1 14652.5 319.867   2
  -6  -5   0 183.011 88.8392   1
  -6  -5   1 13274.5 492.908   1
   6  -5   2 9269.74 234.496   1
  -6  -5   2 9778.86 307.568   2
   6   5   2 10409.8 442.410   1
  -6  -5   3 8083.04 319.940   2
   6   5   3 9040.58 422.520   1
   6  -5   3 8483.20 271.312   1
  -6  -5   4 3333.93 227.498   2
   6   5   4 3150.26 132.126   2
   6   5   5 18839.9 441.994   2
  -6  -5   5 18329.8 604.282   2
   6   5   6 2754.00 189.568   2
   6   5   7 5185.05 286.800   2
   6   6 -10 5014.90 456.008   2
   6   6  -9 139.013 137.385   2
  -6   6  -9 449.433 181.357   2
  -6   6  -8 8615.77 561.471   2
   6   6  -8 8634.67 522.527   2
  -6   6  -7 5831.01 439.708   2
   6   6  -7 5691.89 400.225   2
  -6   6  -6 2564.91 296.220   2
   6   6  -6 2750.13 259.095   2
   6   6  -5 21182.5 662.276   2
  -6   6  -5 18648.7 731.624   2
  -6   6  -4 1990.28 238.889   2
   6   6  -4 2388.19 202.470   2
  -6   6  -3 12021.4 539.285   2
   6   6  -3 10801.5 386.127   2
  -6  -6  -2 16701.4 584.045   1
   6   6  -2 16881.1 437.178   2
  -6  -6  -1 8037.68 393.239   1
   6   6  -1 7900.94 240.258   2
  -6  -6   0 12682.9 493.446   1
   6   6   0 11541.9 211.837   2
  -6  -6   1 7652.34 385.851   1
  -6  -6   3 9821.75 372.393   2
   6  -6   3 11034.1 287.643   1
  -6  -6   4 1894.89 184.156   2
   6   6   5 20161.8 444.477   2
  -6  -6   5 19807.7 646.157   2
   6   6   6 2723.09 178.087   2
   6   7  -9 4166.73 404.868   2
  -6   7  -8 2995.40 349.149   2
   6   7  -8 2764.62 318.647   2
  -6   7  -7 12270.7 663.356   2
   6   7  -7 11602.1 577.461   2
  -6   7  -6 2183.93 281.468   2
   6   7  -6 1933.83 229.083   2
  -6   7  -5 19171.2 772.920   2
   6   7  -5 20260.6 666.242   2
  -6   7  -4 7938.31 471.795   2
   6   7  -4 8543.85 392.202   2
  -6   7  -3 9036.95 489.606   2
   6   7  -3 9029.78 365.918   2
  -6  -7  -2 5545.22 346.006   1
   6   7  -2 6061.10 263.124   2
  -6   7  -2 5153.15 365.631   2
  -6  -7  -1 28570.9 807.397   1
   6   7  -1 30948.4 575.109   2
   6   7   0 2849.28 114.022   2
  -6  -7   0 2562.58 235.072   1
  -6  -7   1 28378.4 803.493   1
  -6  -7   2 4804.14 324.100   1
   6  -7   4 8307.20 279.298   1
  -6  -7   4 7231.89 362.067   2
  -6  -7   5 18883.9 651.675   2
   6   8  -9 2208.69 296.461   2
   6   8  -8 3750.72 369.398   2
  -6   8  -7 4386.86 415.667   2
   6   8  -7 4522.16 371.813   2
  -6   8  -6 8039.71 533.358   2
   6   8  -6 6475.25 414.348   2
  -6   8  -5 3620.01 357.885   2
   6   8  -5 3964.87 300.953   2
   6   8  -4 4737.24 298.229   2
  -6   8  -4 4325.92 376.046   2
   6   8  -3 8581.27 372.810   2
  -6   8  -3 8657.80 509.461   2
   6   8  -2 5742.35 269.542   2
  -6  -8  -2 5343.87 349.611   1
  -6   8  -2 4939.27 376.568   2
   6   8  -1 4557.65 209.075   2
  -6  -8  -1 5092.70 340.626   1
   6   8   0 8004.92 226.652   2
  -6  -8   0 7266.22 401.927   1
  -6  -8   1 4195.72 307.890   1
  -6  -8   2 5069.47 350.030   1
  -6  -8   3 8390.45 459.303   1
   6   9  -8 412.380 171.210   2
   6   9  -7 3379.78 336.550   2
  -6   9  -6 7621.07 539.477   2
   6   9  -6 6783.84 435.092   2
  -6   9  -5 102.116 123.570   2
   6   9  -5 37.6224 97.5487   2
  -6   9  -4 2769.03 316.260   2
   6   9  -4 2894.65 244.155   2
   6   9  -3 5714.41 315.068   2
  -6   9  -3 5507.82 427.191   2
  -6   9  -2 1049.89 215.485   2
   6   9  -2 1172.85 138.664   2
   6   9  -1 6758.13 265.062   2
  -6  -9  -1 6310.01 390.069   1
  -6  -9   0 50.2730 91.4773   1
  -6  -9   1 6117.07 391.624   1
  -6  -9   2 719.631 165.860   1
  -6  -9   3 5518.41 389.971   1
  -6  10  -5 1189.31 231.650   2
  -6  10  -4 441.184 146.798   2
  -6  10  -3 1325.90 253.060   2
  -6  10  -2 1368.80 234.708   2
  -6 -10  -1 85.2004 87.2307   1
  -6  10  -1 86.5851 135.728   2
  -6 -10   0 488.466 131.017   1
  -6 -10   1 43.0592 98.1928   1
  -6 -10   2 1361.16 213.422   1
  -6 -10   3 684.208 153.428   1
  -6 -10   4 572.087 164.973   1
  -6  11  -3-50.7857 144.746   2
  -6  11  -2 2153.96 301.356   2
  -6  11  -1 1473.80 234.421   2
  -6 -11   0 7.95546 104.848   1
  -6 -11   1 1362.68 204.622   1
  -6 -11   2 1421.46 205.667   1
  -7   0 -11 78.8459 120.134   2
  -7   0 -10 146.785 144.000   2
  -7   0  -9 9.22647 109.244   2
  -7   0  -8 9.07143 107.738   2
  -7   0  -7 206.782 120.397   2
  -7   0  -6 0.74349 102.807   2
  -7   0  -5-37.5794 74.6563   2
  -7   0  -4 48.4444 67.0679   2
  -7   0  -3 34.5692 67.4623   2
  -7   0  -2-8.48317 66.9391   1
  -7   0  -2 1.40399 57.9478   2
  -7   0  -1 28.5993 69.4043   1
  -7   0   0 12.3483 73.8221   1
   7   0   1 90.6980 75.2280   1
   7   0   2-48.5304 75.0167   1
   7   0   3-63.8640 71.4974   1
   7   0   4-3.51823 70.1350   1
  -7   0   4-0.50787 72.6492   2
  -7   0   5 86.3901 84.0853   2
   7   0   5 86.7722 79.3726   1
   7   0   6-15.6533 71.5195   2
  -7  -1 -12-11.7753 143.727   2
  -7  -1 -11 1204.55 228.771   2
  -7   1 -11 1324.58 235.591   2
  -7   1 -10 4422.74 389.053   2
  -7  -1 -10 3941.15 349.954   2
  -7   1  -9 3394.60 326.160   2
  -7  -1  -9 3685.76 320.365   2
  -7  -1  -8 1451.10 194.130   2
  -7   1  -8 1120.33 183.521   2
  -7  -1  -7 7248.84 379.572   2
  -7   1  -7 7260.33 412.371   2
  -7  -1  -6 3134.00 235.400   2
  -7   1  -6 3045.09 255.079   2
  -7  -1  -5 2950.07 204.958   2
  -7   1  -5 2797.92 218.435   2
  -7  -1  -4 9991.69 346.284   2
  -7   1  -4 10335.9 401.065   2
  -7  -1  -3 32257.7 622.631   2
  -7   1  -3 30671.3 706.412   2
  -7  -1  -2 3744.57 171.891   2
  -7  -1  -2 3349.59 222.807   1
  -7   1  -1 3431.30 194.796   1
  -7  -1  -1 3349.91 217.040   1
  -7   1   0 13338.2 387.646   1
  -7  -1   0 13169.5 428.406   1
   7  -1   1 3452.66 197.124   1
   7  -1   2 3689.26 211.687   1
   7   1   2 3733.28 240.152   1
   7   1   3 34195.0 795.152   1
   7  -1   3 33205.8 734.032   1
  -7  -1   3 33496.2 736.619   2
   7  -1   4 11354.5 426.984   1
   7   1   4 10933.1 449.429   1
  -7  -1   4 10688.1 418.373   2
   7  -1   5 3339.87 248.781   1
   7   1   5 2923.31 207.260   2
   7   1   5 3180.15 253.079   1
  -7   1   5 3159.98 262.039   2
  -7  -1   5 2738.76 234.537   2
   7  -1   6 3166.27 260.699   1
   7   1   6 3199.56 235.755   2
   7  -1   6 3132.75 254.504   2
   7   1   7 7055.89 377.745   2
  -7  -2 -12 881.645 224.637   2
  -7  -2 -11 1564.91 258.881   2
  -7   2 -11 2108.01 299.116   2
  -7   2 -10 3709.49 367.395   2
  -7  -2 -10 5014.11 389.925   2
  -7   2  -9 13152.0 648.073   2
  -7  -2  -9 13483.0 589.389   2
  -7  -2  -8 3374.86 274.866   2
  -7   2  -8 2902.68 293.324   2
  -7   2  -7 5789.02 388.720   2
  -7  -2  -7 6318.42 344.864   2
  -7  -2  -6 22457.5 615.327   2
  -7   2  -6 22950.1 726.789   2
  -7  -2  -5 2221.86 167.085   2
  -7   2  -5 2011.47 212.330   2
  -7  -2  -4 36753.6 692.164   2
  -7   2  -4 36565.6 861.591   2
  -7  -2  -3 17298.6 386.282   2
  -7   2  -3 18007.7 549.724   2
  -7  -2  -2 7170.53 201.662   2
  -7  -2  -2 6649.28 324.115   1
  -7  -2  -1 23968.3 632.226   1
  -7   2  -1 24251.8 523.247   1
  -7   2   0 14748.9 383.639   1
  -7  -2   0 14270.1 469.791   1
  -7  -2   1 24258.8 484.548   2
   7  -2   2 6825.39 273.983   1
   7   2   2 7713.38 346.558   1
  -7  -2   2 7579.35 279.481   2
   7   2   3 17788.3 569.144   1
  -7  -2   3 17730.3 497.219   2
   7  -2   3 18300.2 500.498   1
  -7  -2   4 36933.7 837.342   2
   7  -2   4 38145.1 830.182   1
   7   2   4 41349.5 942.229   1
   7  -2   5 2135.33 196.849   1
   7   2   5 2420.43 173.471   2
  -7  -2   5 1979.94 194.485   2
   7   2   6 23799.0 638.603   2
   7   2   7 5766.95 327.372   2
  -7   3 -10 10173.0 622.969   2
  -7   3  -9 4779.65 407.526   2
  -7  -3  -9 4733.37 341.030   2
  -7   3  -8 13923.0 647.376   2
  -7  -3  -8 13837.3 542.380   2
  -7   3  -7 13831.4 611.021   2
  -7  -3  -7 13423.9 490.680   2
  -7   3  -6 8781.09 462.879   2
  -7  -3  -6 8316.28 344.885   2
  -7  -3  -5 27322.3 600.514   2
  -7   3  -5 27718.6 801.375   2
  -7   3  -4 5606.75 334.221   2
  -7  -3  -4 5646.93 212.534   2
  -7   3  -3 29874.4 780.332   2
  -7  -3  -3 31139.6 493.836   2
  -7  -3  -2 27545.2 720.746   1
  -7  -3  -1 9493.61 395.595   1
  -7  -3   0 46133.8 630.823   2
  -7  -3   0 47757.5 983.949   1
  -7   3   0 50129.0 761.017   1
  -7  -3   1 9433.49 254.389   2
  -7   3   1 9372.45 284.275   1
  -7  -3   2 27442.6 568.343   2
   7  -3   2 28529.8 582.833   1
   7   3   2 29759.8 752.924   1
  -7  -3   3 31430.2 686.850   2
   7   3   3 32293.8 819.843   1
   7  -3   3 32618.4 677.409   1
   7   3   4 5589.47 334.797   1
  -7  -3   4 5374.92 288.521   2
   7  -3   4 5555.81 279.536   1
  -7  -3   5 28109.1 760.159   2
   7  -3   5 29107.4 732.268   1
   7   3   5 26998.5 599.641   2
   7   3   6 8960.70 356.337   2
   7   3   7 12997.6 478.617   2
   7   3   8 14482.6 554.065   2
  -7   4 -10 3660.52 392.521   2
  -7   4  -9 13953.2 706.260   2
  -7   4  -8 11842.3 622.477   2
  -7   4  -7 8233.16 490.727   2
  -7   4  -6 26061.3 844.431   2
  -7   4  -5 5683.38 370.074   2
  -7   4  -4 41666.3 1020.36   2
  -7  -4  -3 6757.06 365.168   1
  -7   4  -3 6356.61 362.738   2
  -7  -4  -2 30310.0 791.497   1
  -7  -4  -1 40696.5 926.376   1
  -7  -4   0 12252.6 474.822   1
  -7   4   0 13237.5 285.840   1
  -7  -4   1 40321.0 618.763   2
  -7   4   1 40419.0 635.661   1
  -7  -4   1 39162.8 916.410   1
  -7  -4   2 31255.4 606.786   2
   7  -4   2 31376.8 585.550   1
   7   4   2 32903.6 828.515   1
  -7  -4   3 6561.97 284.814   2
   7   4   3 7255.40 379.975   1
   7  -4   3 6632.36 263.037   1
  -7  -4   4 44262.7 923.918   2
   7  -4   4 43923.6 864.419   1
  -7  -4   5 5102.88 312.883   2
   7   4   5 5386.29 225.918   2
   7   4   6 24909.4 600.719   2
   7   4   7 7454.41 348.102   2
  -7   5  -9 1305.50 242.654   2
  -7   5  -8 13630.8 690.670   2
   7   5  -8 13501.1 641.427   2
  -7   5  -7 11034.9 588.207   2
   7   5  -7 10693.0 531.888   2
  -7   5  -6 2717.09 293.959   2
   7   5  -6 2514.72 246.719   2
  -7   5  -5 28216.8 888.234   2
   7   5  -5 29325.5 787.079   2
  -7   5  -4 2956.87 276.464   2
   7   5  -4 2351.20 199.726   2
  -7   5  -3 7281.46 410.174   2
   7   5  -3 7698.14 313.138   2
  -7  -5  -2 16722.3 588.341   1
  -7  -5  -1 12154.8 486.963   1
  -7  -5   0 31279.3 819.757   1
  -7   5   1 11286.6 211.471   1
  -7  -5   1 12300.2 491.641   1
  -7  -5   2 17054.8 420.402   2
   7  -5   2 17451.7 363.068   1
  -7  -5   3 7729.54 310.767   2
   7  -5   3 7194.38 258.820   1
  -7  -5   4 2711.98 207.980   2
   7  -5   4 2396.66 172.419   1
  -7  -5   5 28843.9 781.346   2
   7  -5   5 29046.5 708.232   1
   7   5   5 29086.5 547.287   2
   7   5   6 2710.02 176.219   2
   7   6  -9 4521.13 405.972   2
  -7   6  -9 4628.39 445.101   2
  -7   6  -8 3121.22 349.089   2
   7   6  -8 3030.25 331.898   2
  -7   6  -7 5730.03 446.767   2
   7   6  -7 6485.87 419.027   2
  -7   6  -6 9258.37 541.566   2
   7   6  -6 9593.43 472.461   2
  -7   6  -5 1358.00 208.469   2
   7   6  -5 1524.55 185.344   2
  -7   6  -4 7230.38 446.727   2
   7   6  -4 8667.63 379.942   2
  -7   6  -3 208.612 119.013   2
   7   6  -3 236.235 82.4961   2
  -7  -6  -2 9797.79 461.531   1
   7   6  -2 10718.7 330.057   2
  -7  -6  -1 14664.2 561.046   1
  -7  -6   0 1152.58 167.933   1
  -7  -6   1 13931.9 552.657   1
   7  -6   3 208.818 48.9396   1
  -7  -6   3 350.209 85.2422   2
  -7  -6   4 7736.89 358.494   2
   7  -6   4 8092.93 300.169   1
  -7  -6   5 1545.03 181.815   2
   7   6   5 1576.00 97.9169   2
   7  -6   5 1639.19 157.733   1
   7   7  -9 1056.83 231.020   2
  -7   7  -8 2529.67 329.047   2
   7   7  -8 1432.09 236.526   2
  -7   7  -7 8389.23 551.870   2
   7   7  -7 8482.79 495.351   2
  -7   7  -6 2097.63 284.783   2
   7   7  -6 2713.88 270.548   2
  -7   7  -5 1297.96 236.087   2
   7   7  -5 1077.74 165.963   2
  -7   7  -4 10054.7 550.673   2
   7   7  -4 11506.6 449.730   2
  -7   7  -3 8623.42 494.149   2
   7   7  -3 10001.9 375.154   2
  -7  -7  -2 217.407 109.210   1
   7   7  -2 195.354 60.8598   2
  -7  -7  -1 3246.95 271.420   1
   7   7  -1 3423.51 148.231   2
  -7  -7   0 10499.7 489.704   1
  -7  -7   1 3351.78 288.819   1
  -7  -7   2 187.426 95.0513   1
  -7  -7   4 10091.3 424.601   2
   7  -7   4 9717.55 302.882   1
  -7  -7   5 1373.39 180.503   2
   7   8  -9 47.0157 132.403   2
   7   8  -8 1971.11 278.540   2
  -7   8  -7 156.152 147.768   2
   7   8  -7 297.851 114.194   2
  -7   8  -6 65.3780 123.385   2
   7   8  -6 250.304 123.490   2
  -7   8  -5 6779.46 488.782   2
   7   8  -5 7005.58 395.241   2
  -7   8  -4 156.711 135.990   2
   7   8  -4-45.0978 80.2276   2
  -7   8  -3 3258.73 331.452   2
   7   8  -3 4049.75 244.737   2
  -7  -8  -2 6156.40 393.671   1
  -7   8  -2 6615.48 443.115   2
   7   8  -2 6668.29 273.541   2
  -7  -8  -1 164.673 100.132   1
   7   8  -1 470.566 62.4703   2
  -7  -8   0 5023.05 351.009   1
  -7  -8   1 281.055 140.547   1
  -7  -8   2 5975.04 391.418   1
  -7  -8   3 3868.46 329.852   1
   7   9  -7 2190.33 278.786   2
  -7   9  -6 5740.96 497.243   2
   7   9  -6 6410.98 419.697   2
  -7   9  -5 571.601 185.068   2
   7   9  -5 858.101 144.143   2
  -7   9  -4 7248.29 518.780   2
  -7   9  -3 2822.39 325.156   2
  -7   9  -2 2551.58 300.360   2
  -7  -9  -2 2285.88 252.062   1
  -7  -9  -1 8800.85 477.666   1
  -7  -9   0 225.653 126.832   1
  -7  -9   1 8355.37 472.730   1
  -7  -9   2 2013.46 252.508   1
  -7  -9   3 2253.96 286.257   1
  -7  -9   4 7095.39 471.175   1
  -7  10  -4 2229.40 311.362   2
  -7  10  -3 5597.04 469.607   2
  -7  10  -2 6025.10 476.217   2
  -7 -10  -1 483.276 143.928   1
  -7  10  -1 551.513 186.748   2
  -7 -10   0 8416.87 485.527   1
  -7 -10   1 913.081 173.319   1
  -7 -10   2 6585.59 440.929   1
  -7 -10   3 5794.63 427.529   1
  -7 -10   4 2885.06 316.047   1
  -7 -10   5 4946.09 426.245   1
  -7  11  -2 4180.57 419.229   2
  -7  11  -1 3977.21 399.104   2
  -7 -11   0 158.348 128.698   1
  -7 -11   1 3334.12 317.808   1
  -7 -11   2 3484.05 327.389   1
  -7 -11   3 3353.45 333.418   1
  -8   0 -11 4358.33 411.597   2
  -8   0 -10 21675.6 852.744   2
  -8   0  -9 14823.7 658.830   2
  -8   0  -8 30771.6 915.353   2
  -8   0  -7 9525.20 457.304   2
  -8   0  -6 2887.39 241.044   2
  -8   0  -5 5256.92 293.837   2
  -8   0  -4 5340.49 276.551   2
  -8   0  -3 11016.5 375.179   2
  -8   0  -2 63988.0 1149.44   1
  -8   0  -1 47765.1 926.420   1
  -8   0   0 132901. 1902.69   1
   8   0   2 67497.8 1197.62   1
   8   0   3 12217.0 452.363   1
  -8   0   4 5047.80 302.640   2
   8   0   4 5581.26 316.792   1
   8   0   5 4797.31 314.079   1
  -8   0   5 5066.12 325.425   2
  -8  -1 -12 98.3322 166.769   2
  -8  -1 -11 4894.65 418.307   2
  -8   1 -11 4805.39 441.271   2
  -8   1 -10 18661.6 808.277   2
  -8  -1 -10 18776.7 773.220   2
  -8   1  -9 28665.6 956.657   2
  -8  -1  -9 29352.1 923.610   2
  -8  -1  -8 27604.8 835.737   2
  -8   1  -8 28234.9 897.454   2
  -8  -1  -7 5885.61 348.290   2
  -8   1  -7 5753.31 373.856   2
  -8  -1  -6 2213.98 203.171   2
  -8   1  -6 1544.50 192.693   2
  -8  -1  -5 2389.46 192.381   2
  -8   1  -5 2495.82 224.234   2
  -8  -1  -4 6514.55 282.012   2
  -8   1  -4 6385.14 324.586   2
  -8  -1  -3 3743.11 194.829   2
  -8   1  -3 3976.26 244.671   2
  -8   1  -2 52182.5 974.123   1
  -8  -1  -2 51628.6 853.748   2
  -8  -1  -2 52787.6 1042.33   1
  -8   1  -1 61554.4 1059.41   1
  -8  -1  -1 61298.9 1131.10   1
  -8   1   0 77341.8 1243.56   1
  -8  -1   0 79375.7 1337.34   1
   8  -1   2 54103.2 1003.63   1
   8   1   2 54948.7 1072.65   1
   8  -1   3 3624.17 233.032   1
   8   1   3 3919.19 265.165   1
  -8  -1   3 3817.68 236.090   2
   8  -1   4 6940.80 344.387   1
  -8  -1   4 6805.19 341.852   2
   8   1   4 7251.24 372.106   1
   8  -1   5 2569.68 236.670   1
  -8  -1   5 2165.04 222.681   2
   8   1   7 5740.99 340.438   2
  -8  -2 -12 584.598 177.476   2
  -8  -2 -11 2286.04 291.011   2
  -8   2 -11 2054.95 306.843   2
  -8   2 -10 12009.8 669.521   2
  -8  -2 -10 12580.2 612.369   2
  -8   2  -9 14979.7 699.437   2
  -8  -2  -9 15498.1 638.453   2
  -8   2  -8 16126.6 690.443   2
  -8  -2  -8 16514.2 611.932   2
  -8   2  -7 3869.66 319.333   2
  -8  -2  -7 4056.42 277.520   2
  -8  -2  -6 2509.48 201.587   2
  -8   2  -6 2506.05 244.680   2
  -8  -2  -5 2471.71 180.117   2
  -8   2  -5 2581.72 235.900   2
  -8   2  -4 46.2798 84.5877   2
  -8  -2  -4 118.842 61.7663   2
  -8  -2  -3 2318.81 135.271   2
  -8   2  -3 2050.28 191.697   2
  -8  -2  -3 1919.35 201.357   1
  -8  -2  -2 15840.6 347.568   2
  -8  -2  -2 16692.7 550.133   1
  -8  -2  -1 32952.4 793.491   1
  -8   2  -1 32989.5 674.637   1
  -8   2   0 79406.4 1210.39   1
  -8  -2   0 76432.1 1361.70   1
  -8   2   1 31683.1 666.578   1
   8  -2   2 16246.3 465.309   1
   8   2   2 17030.6 557.559   1
  -8  -2   2 16242.4 443.245   2
   8  -2   3 2232.97 178.819   1
   8   2   3 2452.32 222.267   1
  -8  -2   3 2316.53 186.200   2
   8  -2   4 108.021 71.9764   1
  -8  -2   4 10.2318 74.6481   2
   8   2   4 57.3559 88.3777   1
  -8  -2   5 2569.54 229.850   2
   8  -2   5 2786.82 229.852   1
   8   2   6 2777.12 211.675   2
   8   2   7 3634.10 264.987   2
  -8  -3 -10 1215.95 206.729   2
  -8   3 -10 960.060 209.474   2
  -8   3  -9 5941.57 454.038   2
  -8  -3  -9 6034.99 388.358   2
  -8  -3  -8 1948.86 210.365   2
  -8   3  -8 2446.97 279.886   2
  -8   3  -7 4164.69 346.120   2
  -8  -3  -7 4296.94 271.798   2
  -8   3  -6 4034.87 321.342   2
  -8  -3  -6 4264.92 243.912   2
  -8   3  -5 6520.49 385.016   2
  -8  -3  -5 7267.50 283.050   2
  -8   3  -4 2163.72 219.649   2
  -8  -3  -4 2486.52 140.136   2
  -8  -3  -3 4830.12 160.300   2
  -8  -3  -3 5051.86 317.815   1
  -8   3  -3 4616.23 298.474   2
  -8  -3  -2 2705.55 90.3513   2
  -8  -3  -2 2899.24 237.460   1
  -8  -3  -1 27912.1 742.614   1
  -8   3  -1 28702.8 567.405   1
  -8  -3   0 23507.1 675.679   1
  -8   3   0 23603.5 503.826   1
  -8  -3   0 22825.1 393.225   2
  -8   3   1 27999.3 582.006   1
  -8  -3   1 27283.0 753.203   1
  -8  -3   1 29364.5 533.287   2
  -8  -3   2 3009.26 175.294   2
   8  -3   2 3222.63 187.842   1
   8   3   2 3045.90 247.897   1
   8  -3   3 4913.62 250.942   1
  -8  -3   3 5107.13 257.899   2
   8   3   3 5358.51 332.483   1
  -8  -3   4 2548.64 203.018   2
   8  -3   4 2550.27 199.384   1
  -8  -3   5 6725.52 359.103   2
   8  -3   5 6693.40 343.643   1
   8  -3   6 4018.37 291.485   1
   8   3   6 3642.81 228.954   2
   8   3   7 3793.84 255.085   2
  -8   4 -10 879.582 223.949   2
  -8   4  -9 1586.15 262.555   2
  -8   4  -8 467.047 186.521   2
  -8   4  -7 1220.45 205.437   2
  -8   4  -6 1011.71 190.867   2
  -8   4  -5 6334.77 406.635   2
  -8   4  -4 23068.1 747.172   2
  -8  -4  -3 6399.96 371.179   1
  -8   4  -3 6349.86 372.155   2
  -8  -4  -2 299.825 103.584   1
  -8  -4  -1 4152.24 290.571   1
  -8  -4   0 5149.24 318.075   1
  -8   4   0 5716.04 201.412   1
  -8  -4   1 4675.28 167.517   2
  -8   4   1 4708.26 190.324   1
  -8  -4   1 4065.85 288.190   1
   8  -4   2 247.962 62.4606   1
  -8  -4   2 231.381 60.6977   2
   8  -4   3 6247.93 270.683   1
  -8  -4   3 6215.29 283.134   2
  -8  -4   4 22421.1 624.599   2
   8  -4   4 22549.7 591.144   1
  -8  -4   5 6249.13 345.047   2
   8  -4   5 6317.96 327.044   1
   8  -4   6 771.284 129.225   1
   8   4   6 1160.40 122.130   2
   8   4   7 1877.33 176.903   2
  -8   5  -9 280.631 181.466   2
  -8   5  -8 649.151 192.725   2
  -8   5  -7 695.315 186.860   2
  -8   5  -6 7746.79 482.666   2
  -8   5  -5 5215.24 381.528   2
  -8   5  -4 22987.3 783.992   2
  -8  -5  -3 12897.2 547.954   1
  -8   5  -3 14401.7 595.116   2
  -8  -5  -2 8250.27 424.257   1
  -8  -5  -1 231.852 109.626   1
  -8  -5   0 29.8505 94.0893   1
  -8   5   1 299.479 46.1904   1
  -8  -5   1 294.697 118.213   1
  -8  -5   2 8226.11 276.276   2
  -8   5   2 8127.76 249.994   1
   8  -5   3 13494.3 380.693   1
  -8  -5   3 12391.7 405.945   2
  -8  -5   4 22817.1 630.357   2
   8  -5   4 22547.8 573.065   1
  -8  -5   5 5591.74 332.277   2
   8  -5   5 5357.65 291.808   1
   8  -5   6 7714.76 381.861   1
   8   5   6 8428.29 295.474   2
  -8   6  -8 1284.32 246.983   2
  -8   6  -7 2831.29 330.008   2
  -8   6  -6 12370.7 639.020   2
   8   6  -6 12386.3 543.247   2
  -8   6  -5 5027.06 396.237   2
  -8   6  -4 16253.5 684.214   2
  -8  -6  -3 8087.67 446.510   1
  -8   6  -3 8060.16 464.764   2
  -8  -6  -2 12788.6 552.107   1
  -8  -6  -1 5462.74 357.743   1
  -8  -6   0 4669.60 328.431   1
  -8  -6   1 5569.95 358.083   1
  -8  -6   2 13687.9 364.359   2
  -8  -6   2 13835.4 580.431   1
  -8   6   2 12124.9 233.947   1
  -8  -6   3 8314.83 329.907   2
   8  -6   3 8331.50 263.254   1
  -8  -6   4 15534.9 518.479   2
   8  -6   4 16917.4 455.204   1
  -8  -6   5 4474.41 300.771   2
   8  -6   5 4668.59 263.083   1
   8   7  -8 3434.58 349.906   2
  -8   7  -7 3407.20 372.793   2
   8   7  -7 3324.84 315.464   2
  -8   7  -6 12192.2 659.625   2
   8   7  -6 11863.7 545.285   2
  -8   7  -5 6559.02 467.416   2
   8   7  -5 7278.25 392.803   2
  -8   7  -4 14731.3 677.179   2
   8   7  -4 14226.2 503.151   2
  -8   7  -3 3547.84 330.760   2
  -8  -7  -2 8116.63 452.341   1
  -8  -7  -1 5355.21 363.356   1
  -8  -7   0 18488.8 687.661   1
  -8  -7   1 5739.31 380.383   1
  -8  -7   2 7104.33 430.403   1
  -8   7   3 2675.95 85.4549   1
  -8  -7   4 13271.8 484.860   2
   8   8  -8 3857.38 361.886   2
   8   8  -7 2652.86 294.638   2
  -8   8  -6 2311.48 320.160   2
   8   8  -6 2544.00 255.236   2
  -8   8  -5 6666.27 496.171   2
   8   8  -5 6752.84 385.711   2
  -8   8  -4 7237.90 500.483   2
   8   8  -4 7162.70 357.737   2
  -8   8  -3 4533.60 395.783   2
   8   8  -3 4718.52 258.637   2
  -8  -8  -2 10101.2 527.405   1
  -8   8  -2 10082.3 569.979   2
  -8  -8  -1 4155.80 333.254   1
  -8  -8   0 6365.21 414.293   1
  -8  -8   1 3755.83 324.392   1
  -8  -8   2 9734.13 520.876   1
  -8  -8   3 3787.45 338.089   1
  -8   9  -5 810.130 211.159   2
  -8   9  -4 843.531 219.741   2
  -8   9  -3 1566.11 256.315   2
  -8  -9  -2 5761.09 408.560   1
  -8   9  -2 7495.19 511.858   2
  -8  -9  -1 2727.22 291.782   1
  -8  -9   0 5118.54 387.038   1
  -8  -9   1 2879.75 293.024   1
  -8  -9   2 6140.49 431.939   1
  -8  -9   3 1922.52 257.033   1
  -8  -9   4 711.927 194.676   1
  -8  10  -3 256.553 174.089   2
  -8  10  -2 713.636 220.649   2
  -8 -10  -1 2219.71 274.447   1
  -8  10  -1 2310.19 320.761   2
  -8 -10   0 4267.47 360.903   1
  -8 -10   1 2077.55 265.757   1
  -8 -10   2 555.062 161.255   1
  -8 -10   3 90.1599 123.195   1
  -8 -10   4 560.773 169.366   1
  -8 -10   5-68.6855 150.003   1
  -8 -11  -1 859.498 197.469   1
  -8 -11   0-203.109 156.988   1
  -8 -11   1 1073.74 216.239   1
  -8 -11   2 222.574 130.075   1
  -8 -11   3 118.712 123.935   1
  -8 -11   4-145.661 148.511   1
  -9   0 -11 306.322 170.623   2
  -9   0 -10 104.394 155.791   2
  -9   0  -9 16.8473 112.459   2
  -9   0  -8 36.7589 94.0267   2
  -9   0  -7-17.4098 90.6720   2
  -9   0  -6 20.9607 94.3072   2
  -9   0  -5 57.0292 82.5077   2
  -9   0  -4-27.5271 60.6207   2
  -9   0  -3-49.4751 72.7597   2
  -9   0  -2 39.8536 77.2693   1
  -9   0  -1 89.6542 83.8717   1
  -9   0   0 163.584 95.0271   1
  -9   0   1-23.0063 74.0974   1
   9   0   2 8.54465 71.3087   1
   9   0   3 102.579 88.1605   1
  -9   0   4 57.9448 82.8579   2
   9   0   4 141.558 91.6920   1
  -9  -1 -11 849.696 197.838   2
  -9   1 -11 563.133 206.772   2
  -9  -1 -10 383.090 160.288   2
  -9   1 -10 124.723 123.644   2
  -9   1  -9 3579.86 340.707   2
  -9  -1  -9 3875.77 328.410   2
  -9  -1  -8 6611.11 398.542   2
  -9   1  -8 6235.65 420.169   2
  -9  -1  -7 2236.78 217.968   2
  -9   1  -7 2922.73 277.080   2
  -9   1  -6 510.526 137.286   2
  -9  -1  -6 517.244 117.185   2
  -9  -1  -5 2735.48 210.063   2
  -9   1  -5 2738.13 235.254   2
  -9  -1  -4 9299.71 350.230   2
  -9   1  -4 9271.19 403.473   2
  -9  -1  -3 7577.06 292.474   2
  -9   1  -3 7242.96 340.545   2
  -9   1  -2 14579.3 475.469   1
  -9  -1  -2 14674.4 402.804   2
  -9  -1  -2 14108.5 506.544   1
  -9   1  -1 5119.92 272.832   1
  -9  -1  -1 4958.35 292.898   1
  -9   1   0 3801.66 236.039   1
  -9  -1   0 3933.35 260.097   1
  -9   1   1 4874.75 271.792   1
  -9  -1   1 5329.71 307.864   1
   9  -1   2 14843.9 488.365   1
   9   1   2 15587.2 537.971   1
   9  -1   3 7957.00 364.443   1
   9   1   3 7655.23 385.168   1
  -9  -1   3 7386.04 341.877   2
   9   1   4 9521.63 449.271   1
  -9  -1   4 9839.97 431.413   2
   9  -1   4 9996.03 430.985   1
   9  -1   5 2696.66 243.362   1
  -9  -1   5 2663.67 243.802   2
  -9  -2 -11 1590.60 255.679   2
  -9  -2 -10 1818.87 249.911   2
  -9   2 -10 1906.99 292.614   2
  -9   2  -9 4205.46 384.556   2
  -9  -2  -9 4461.10 345.029   2
  -9   2  -8 4799.07 384.346   2
  -9  -2  -8 5905.52 365.372   2
  -9  -2  -7 12083.9 485.054   2
  -9   2  -7 12116.7 567.398   2
  -9  -2  -6 3837.54 252.516   2
  -9   2  -6 3289.26 285.524   2
  -9  -2  -5 19693.1 531.842   2
  -9   2  -5 19216.7 655.628   2
  -9  -2  -4 6819.19 272.062   2
  -9   2  -4 6850.44 366.941   2
  -9  -2  -3 24028.9 506.074   2
  -9  -2  -3 24869.9 730.016   1
  -9   2  -3 23262.6 679.678   2
  -9  -2  -2 17090.7 384.727   2
  -9  -2  -2 16250.0 569.721   1
  -9   2  -1 10420.5 370.986   1
  -9  -2  -1 10200.9 438.769   1
  -9   2   0 1639.97 151.591   1
  -9  -2   0 1705.96 189.515   1
  -9   2   1 10565.6 375.395   1
  -9  -2   1 10680.8 451.246   1
   9  -2   2 17228.3 509.808   1
   9   2   2 18483.3 612.384   1
  -9  -2   2 17269.8 479.803   2
   9  -2   3 24626.2 654.904   1
   9   2   3 25762.8 756.256   1
  -9  -2   3 24743.1 641.755   2
   9  -2   4 7281.94 353.466   1
  -9  -2   4 6777.64 346.922   2
  -9  -2   5 21102.5 674.235   2
   9  -2   5 20440.1 653.232   1
  -9  -3 -10 2277.08 261.401   2
  -9   3 -10 2535.83 324.061   2
  -9   3  -9 7948.30 538.189   2
  -9  -3  -9 8024.39 439.639   2
  -9   3  -8 9289.15 548.091   2
  -9  -3  -8 9360.58 441.301   2
  -9   3  -7 16730.0 698.908   2
  -9  -3  -7 15968.4 538.253   2
  -9   3  -6 13293.7 596.791   2
  -9  -3  -6 14240.5 454.981   2
  -9   3  -5 2689.93 261.589   2
  -9  -3  -5 2848.87 178.010   2
  -9  -3  -4 32526.3 597.016   2
  -9   3  -4 30721.7 863.314   2
  -9  -3  -3 14676.2 316.592   2
  -9  -3  -3 15783.1 587.460   1
  -9   3  -3 15585.8 571.327   2
  -9  -3  -2 25951.2 409.875   2
  -9  -3  -2 26534.3 767.512   1
  -9   3  -1 20202.8 497.790   1
  -9  -3  -1 18743.3 328.661   2
  -9  -3  -1 18446.3 619.916   1
  -9   3   0 716.722 95.2126   1
  -9  -3   0 851.195 73.2131   2
  -9  -3   0 672.400 132.286   1
  -9   3   1 19845.3 500.779   1
  -9  -3   1 18982.5 637.573   1
  -9  -3   1 19886.1 439.788   2
  -9  -3   2 27562.1 607.057   2
   9  -3   2 28194.6 646.966   1
  -9  -3   3 15935.0 484.992   2
   9  -3   3 16112.8 493.654   1
  -9  -3   4 32069.2 790.553   2
   9  -3   4 32111.2 776.797   1
  -9  -3   5 3013.62 245.025   2
   9  -3   5 2666.26 222.101   1
  -9   4  -9 6932.63 522.639   2
  -9   4  -8 9828.03 582.268   2
  -9   4  -7 16718.5 731.220   2
  -9   4  -6 7993.19 480.270   2
  -9   4  -5 22627.5 785.411   2
  -9   4  -4 1911.99 230.447   2
  -9  -4  -3 41180.9 1040.77   1
  -9   4  -3 41506.7 1045.07   2
  -9  -4  -2 10486.3 487.320   1
  -9  -4  -1 7911.97 412.433   1
  -9  -4   0 25255.3 772.412   1
  -9   4   0 28450.4 559.185   1
  -9   4   1 8814.44 294.056   1
  -9  -4   1 8771.23 248.129   2
  -9  -4   1 7914.11 422.750   1
  -9  -4   2 11035.9 338.716   2
  -9  -4   3 40845.2 830.524   2
   9  -4   3 41415.0 827.144   1
   9  -4   4 1849.11 177.100   1
  -9  -4   4 1905.01 180.909   2
  -9  -4   5 23411.9 703.301   2
   9  -4   5 22758.3 663.073   1
   9  -4   6 7545.68 399.749   1
  -9   5  -9 6187.45 504.128   2
  -9   5  -8 1476.94 253.122   2
  -9   5  -7 3838.52 369.081   2
  -9   5  -6 28778.9 966.378   2
  -9   5  -5 4483.62 366.821   2
  -9   5  -4 16829.6 686.048   2
  -9  -5  -3 9922.12 496.162   1
  -9   5  -3 8743.10 474.589   2
  -9  -5  -2 8406.98 450.268   1
  -9  -5  -1 13726.7 565.649   1
  -9  -5   0 9975.90 481.561   1
  -9  -5   1 13839.8 290.694   2
  -9  -5   1 14352.3 585.910   1
  -9   5   1 15597.5 344.381   1
  -9  -5   2 9538.63 301.233   2
  -9   5   2 9316.31 290.051   1
  -9  -5   2 8637.57 466.978   1
  -9  -5   3 9713.47 354.215   2
   9  -5   3 9642.92 334.480   1
   9  -5   4 17404.1 510.385   1
  -9  -5   4 16419.9 533.457   2
  -9  -5   5 4431.44 297.037   2
   9  -5   5 4451.14 275.828   1
   9  -5   6 28127.3 785.729   1
  -9   6  -8 2239.80 315.299   2
  -9   6  -7 7047.70 508.221   2
  -9   6  -6 3146.75 340.480   2
  -9   6  -5 17639.7 753.402   2
  -9   6  -4 206.166 130.647   2
  -9  -6  -3 6386.24 411.875   1
  -9   6  -3 6074.41 416.450   2
  -9  -6  -2 7051.60 424.308   1
  -9  -6  -1 956.549 169.835   1
  -9  -6   0 5593.74 377.754   1
  -9  -6   1 982.504 187.296   1
  -9  -6   2 7620.45 258.527   2
  -9  -6   2 6858.23 426.239   1
  -9   6   2 7037.98 193.338   1
  -9  -6   3 5472.57 263.874   2
  -9  -6   4 277.973 92.5906   2
   9  -6   4 252.100 77.0462   1
  -9  -6   5 16705.5 586.642   2
  -9   7  -7 2959.19 350.363   2
  -9   7  -6 3124.21 348.582   2
  -9   7  -5 297.228 155.306   2
  -9   7  -4 4346.38 388.520   2
  -9   7  -3 5277.90 417.194   2
  -9  -7  -2 2443.81 267.092   1
  -9  -7  -1 5182.18 378.370   1
  -9  -7   0 2450.42 264.086   1
  -9  -7   1 4650.34 363.855   1
  -9  -7   2 2197.29 261.827   1
  -9  -7   3 5437.15 406.920   1
  -9   8  -6 1502.27 268.475   2
  -9   8  -5 768.303 185.130   2
  -9   8  -4 1671.53 255.452   2
  -9   8  -3 5259.46 435.572   2
  -9  -8  -2 6115.57 427.745   1
  -9   8  -2 6712.18 480.493   2
  -9  -8  -1 4610.63 369.134   1
  -9  -8   0 1258.89 210.424   1
  -9  -8   1 4213.37 355.348   1
  -9  -8   2 6154.20 435.718   1
  -9  -8   3 5813.83 429.125   1
  -9   9  -4 841.752 223.521   2
  -9   9  -3 4076.62 409.363   2
  -9   9  -2 3965.86 385.954   2
  -9  -9  -2 3163.87 323.483   1
  -9  -9  -1 2544.74 292.568   1
  -9  -9   0 10916.8 586.803   1
  -9  -9   1 2021.48 266.501   1
  -9  -9   2 3390.52 337.723   1
  -9  -9   3 4424.59 385.546   1
  -9  -9   4 909.002 217.217   1
  -9  10  -2 1856.04 291.164   2
  -9 -10  -1 11364.5 607.675   1
  -9 -10   0 102.709 136.675   1
  -9 -10   1 11160.1 606.624   1
  -9 -10   2 1493.75 246.406   1
  -9 -10   3 753.881 191.258   1
  -9 -10   4 4905.55 434.529   1
  -9 -10   5 3112.46 371.469   1
  -9 -11  -1 581.482 169.092   1
  -9 -11   0 5001.46 418.006   1
  -9 -11   1 656.790 188.277   1
  -9 -11   2 3107.10 342.014   1
  -9 -11   3 2642.23 329.537   1
 -10   0 -11 13462.3 715.888   2
 -10   0 -10 2092.81 277.958   2
 -10   0  -9 14500.6 660.388   2
 -10   0  -8 8056.87 469.826   2
 -10   0  -7 18842.7 671.904   2
 -10   0  -6 11992.9 502.398   2
 -10   0  -5 11024.0 450.485   2
 -10   0  -4 3459.61 238.147   2
 -10   0  -3 75192.0 1290.46   2
 -10   0  -2 15850.5 546.065   1
 -10   0  -1 55752.9 1114.06   1
 -10   0   0 2118.22 195.948   1
 -10   0   1 53495.9 1092.85   1
  10   0   2 16610.0 567.841   1
  10   0   3 77238.6 1444.36   1
 -10  -1 -11 730.466 186.806   2
 -10   1 -11 645.195 194.992   2
 -10   1 -10 5692.18 458.536   2
 -10  -1 -10 5745.51 428.420   2
 -10  -1  -9 4152.68 348.009   2
 -10   1  -9 4550.33 391.979   2
 -10  -1  -8 10439.3 509.101   2
 -10   1  -8 9881.93 531.199   2
 -10  -1  -7 20151.2 672.311   2
 -10   1  -7 19649.7 721.831   2
 -10  -1  -6 8579.39 398.597   2
 -10   1  -6 8172.31 431.389   2
 -10  -1  -5 6959.70 336.714   2
 -10   1  -5 7913.50 401.203   2
 -10  -1  -4 17025.8 502.216   2
 -10   1  -4 17124.9 573.134   2
 -10  -1  -3 23466.0 574.127   2
 -10  -1  -3 23681.8 720.410   1
 -10   1  -3 23688.4 666.671   2
 -10   1  -2 48185.2 1003.93   1
 -10  -1  -2 49227.4 883.225   2
 -10  -1  -2 48429.4 1071.27   1
 -10   1  -1 30944.0 748.999   1
 -10  -1  -1 30424.7 797.247   1
 -10   1   0 3874.18 246.543   1
 -10  -1   0 3791.06 269.713   1
 -10   1   1 29894.9 737.946   1
 -10  -1   1 28630.4 779.463   1
  10  -1   2 52266.3 1072.18   1
  10  -1   3 23534.9 687.896   1
  10   1   3 24819.1 744.212   1
 -10  -1   3 24382.7 672.532   2
  10  -1   4 18364.3 626.257   1
 -10  -1   4 17278.5 593.973   2
 -10  -2 -10 724.941 171.304   2
 -10   2 -10 591.457 182.701   2
 -10   2  -9 3774.42 364.969   2
 -10  -2  -9 3094.10 287.751   2
 -10   2  -8 7179.95 473.953   2
 -10  -2  -8 6855.90 396.479   2
 -10  -2  -7 10992.6 463.239   2
 -10   2  -7 10399.5 536.596   2
 -10  -2  -6 6916.01 337.676   2
 -10   2  -6 7612.17 440.154   2
 -10  -2  -5 7142.17 311.669   2
 -10   2  -5 7171.56 403.473   2
 -10  -2  -4 1584.12 137.920   2
 -10   2  -4 1479.34 185.261   2
 -10  -2  -3 27006.0 563.848   2
 -10  -2  -3 26642.5 795.704   1
 -10   2  -3 25961.2 745.438   2
 -10  -2  -2 25232.3 523.434   2
 -10  -2  -2 26167.2 771.143   1
 -10   2  -1 20478.1 568.836   1
 -10  -2  -1 20078.5 656.078   1
 -10   2   0 5616.59 284.079   1
 -10  -2   0 5510.56 335.548   1
 -10   2   1 19871.5 563.264   1
 -10  -2   1 19992.1 656.254   1
 -10  -2   2 25537.7 626.337   2
  10  -2   3 27642.5 728.255   1
 -10  -2   3 26902.7 693.771   2
  10  -2   4 1568.36 182.577   1
 -10  -2   4 1549.54 178.475   2
 -10  -2   5 7034.85 390.211   2
 -10   3 -10 3081.65 366.342   2
 -10  -3  -9 612.485 152.770   2
 -10   3  -9 887.623 213.893   2
 -10   3  -8 3096.89 327.715   2
 -10  -3  -8 3247.58 261.673   2
 -10   3  -7 7572.14 477.349   2
 -10  -3  -7 7822.18 366.860   2
 -10   3  -6 4601.23 358.524   2
 -10  -3  -6 4459.34 251.966   2
 -10   3  -5 3325.19 298.855   2
 -10  -3  -5 3504.55 198.039   2
 -10   3  -4 1101.87 182.162   2
 -10  -3  -4 1261.07 104.867   2
 -10  -3  -3 2810.39 268.467   1
 -10  -3  -3 2835.16 132.921   2
 -10   3  -3 2645.98 246.506   2
 -10  -3  -2 11573.4 260.019   2
 -10  -3  -2 11673.5 517.880   1
 -10   3  -1 652.165 99.2889   1
 -10  -3  -1 736.105 65.2794   2
 -10  -3  -1 735.357 155.052   1
 -10  -3   0 16895.7 622.351   1
 -10   3   0 17902.1 495.759   1
 -10  -3   0 17964.5 389.062   2
 -10  -3   1 897.734 165.326   1
 -10  -3   1 829.526 90.4012   2
 -10   3   1 730.979 102.577   1
 -10  -3   2 11290.2 374.332   2
 -10  -3   3 2922.88 208.696   2
  10  -3   3 3026.78 220.688   1
  10  -3   4 1178.16 152.759   1
 -10  -3   4 1127.25 152.199   2
 -10  -3   5 3287.40 269.184   2
  10  -3   5 3677.06 275.144   1
 -10   4  -9 1127.15 239.330   2
 -10   4  -8 1565.79 255.619   2
 -10   4  -7 7372.39 487.931   2
 -10   4  -6 3696.56 338.654   2
 -10   4  -5 317.400 137.986   2
 -10   4  -4 5085.60 367.829   2
 -10  -4  -3 4664.52 345.546   1
 -10   4  -3 5108.01 356.422   2
 -10  -4  -2 3512.21 296.658   1
 -10  -4  -1 1425.01 190.082   1
 -10   4   0 1120.27 115.285   1
 -10  -4   0 1106.39 180.594   1
 -10   4   1 1751.76 145.093   1
 -10  -4   1 1656.54 111.135   2
 -10  -4   1 1369.38 196.052   1
 -10  -4   2 3895.05 203.689   2
 -10   4   2 3649.43 217.564   1
 -10  -4   3 4959.77 263.278   2
  10  -4   3 5033.54 269.003   1
 -10  -4   4 4567.17 279.281   2
  10  -4   4 5091.12 290.624   1
  10  -4   5-24.2126 86.1399   1
 -10  -4   5 225.806 106.605   2
 -10   5  -8 6211.07 495.824   2
 -10   5  -7 2016.75 283.268   2
 -10   5  -6 1859.81 260.482   2
 -10   5  -5 2442.85 282.612   2
 -10   5  -4 1660.56 240.710   2
 -10  -5  -3 11718.1 560.087   1
 -10   5  -3 12080.5 576.274   2
 -10  -5  -2 7759.43 450.456   1
 -10  -5  -1 1464.88 204.465   1
 -10  -5   0 2194.07 239.451   1
 -10  -5   1 1710.15 224.654   1
 -10  -5   1 1365.11 81.0576   2
 -10   5   1 1674.03 123.958   1
 -10  -5   2 7416.52 267.249   2
 -10   5   2 8047.51 290.900   1
 -10  -5   2 7418.23 447.213   1
 -10  -5   3 11795.0 400.651   2
  10  -5   3 12103.9 400.684   1
 -10  -5   4 1876.46 185.741   2
  10  -5   4 1536.66 156.128   1
 -10  -5   5 3106.32 252.354   2
 -10   6  -7 8342.08 566.968   2
 -10   6  -6 1450.65 251.057   2
 -10   6  -5 9479.42 563.627   2
 -10   6  -4 475.554 165.233   2
 -10  -6  -3 22006.2 806.580   1
 -10   6  -3 23839.3 861.012   2
 -10  -6  -2 4720.57 371.714   1
 -10  -6  -1 11477.4 560.135   1
 -10  -6   0 682.907 159.587   1
 -10  -6   1 11140.4 554.672   1
 -10  -6   2 5219.20 207.401   2
 -10  -6   2 5332.31 398.926   1
 -10   6   2 5127.79 183.766   1
 -10  -6   3 22844.8 568.231   2
 -10   6   3 22164.7 503.002   1
 -10   7  -6 5650.63 471.425   2
 -10   7  -5 6880.33 505.591   2
 -10   7  -4 2997.39 337.262   2
 -10  -7  -3 6881.06 463.030   1
 -10   7  -3 6986.18 489.830   2
 -10  -7  -2 6825.10 450.962   1
 -10  -7  -1 4398.94 359.135   1
 -10  -7   0 17690.4 725.053   1
 -10  -7   1 4312.20 361.253   1
 -10  -7   2 6005.62 425.335   1
 -10  -7   3 6655.72 466.200   1
 -10   8  -5 7046.51 531.913   2
 -10   8  -4 5962.95 491.330   2
 -10   8  -3 1870.41 283.679   2
 -10  -8  -2 647.137 175.250   1
 -10   8  -2 476.411 153.279   2
 -10  -8  -1 18755.9 774.111   1
 -10  -8   0 1036.95 178.693   1
 -10  -8   1 17846.0 759.380   1
 -10  -8   2 997.948 218.525   1
 -10  -8   3 1511.93 244.416   1
 -10  -8   4 5496.76 452.253   1
 -10   9  -3 372.993 133.789   2
 -10  -9  -2 1654.02 255.409   1
 -10   9  -2 2215.76 302.819   2
 -10  -9  -1 1725.16 251.952   1
 -10  -9   0 5456.95 426.368   1
 -10  -9   1 2247.54 284.496   1
 -10  -9   2 1560.82 248.972   1
 -10  -9   3 286.767 154.605   1
 -10  -9   4 2035.45 306.071   1
 -10  -9   5 1875.03 310.535   1
 -10 -10  -1 1252.58 223.272   1
 -10 -10   0 273.988 153.816   1
 -10 -10   1 1039.33 214.160   1
 -10 -10   2 93.1971 144.021   1
 -10 -10   3 704.436 210.450   1
 -10 -10   4 695.547 190.686   1
 -10 -11  -1 205.339 139.609   1
 -10 -11   0 1094.40 216.350   1
 -10 -11   1 235.601 148.777   1
 -10 -11   2 1419.90 263.069   1
 -11   0 -11 49.8922 145.793   2
 -11   0 -10-243.594 133.691   2
 -11   0  -9-147.849 129.950   2
 -11   0  -8-25.5644 110.677   2
 -11   0  -7-57.1322 93.5129   2
 -11   0  -6-15.2971 98.3124   2
 -11   0  -5-30.9022 100.418   2
 -11   0  -4-20.5891 73.2716   2
 -11   0  -3 15.8757 65.2682   2
 -11   0  -2 170.097 106.277   1
 -11   0  -1 51.2191 92.2907   1
 -11   0   0-72.4734 98.7640   1
 -11   0   1 97.5798 95.8534   1
 -11  -1 -10 942.560 194.936   2
 -11   1 -10 1090.95 235.332   2
 -11  -1  -9 971.979 170.747   2
 -11   1  -9 673.969 182.398   2
 -11  -1  -8 3118.31 285.045   2
 -11   1  -8 2893.71 298.254   2
 -11   1  -7 2159.07 243.823   2
 -11  -1  -7 2339.40 236.086   2
 -11  -1  -6 4229.86 287.395   2
 -11   1  -6 4569.32 333.398   2
 -11  -1  -5 4326.15 270.004   2
 -11   1  -5 3623.35 282.116   2
 -11   1  -4 2336.50 217.244   2
 -11  -1  -4 2092.02 177.241   2
 -11  -1  -3 1866.02 160.177   2
 -11   1  -3 1675.20 184.243   2
 -11  -1  -3 1775.77 212.818   1
 -11   1  -2 8643.67 402.241   1
 -11  -1  -2 8595.22 334.633   2
 -11  -1  -2 8619.34 431.804   1
 -11   1  -1 6225.16 334.232   1
 -11  -1  -1 6513.74 369.362   1
 -11   1   0 8536.67 390.263   1
 -11  -1   0 8355.45 417.444   1
 -11   1   1 6457.74 342.542   1
 -11  -1   1 5855.52 354.028   1
  11  -1   3 2061.76 209.986   1
 -11  -1   4 2064.41 214.260   2
 -11   2 -10 3032.99 361.060   2
 -11  -2  -9 2257.66 260.811   2
 -11   2  -9 2286.25 301.411   2
 -11  -2  -8 4676.17 324.521   2
 -11   2  -8 3777.89 351.332   2
 -11  -2  -7 6344.26 354.606   2
 -11   2  -7 6497.37 432.396   2
 -11  -2  -6 5663.05 309.968   2
 -11   2  -6 5191.20 371.583   2
 -11  -2  -5 9974.63 381.595   2
 -11   2  -5 10249.0 495.317   2
 -11  -2  -4 5754.04 268.154   2
 -11   2  -4 5695.73 356.507   2
 -11  -2  -3 34856.7 689.136   2
 -11  -2  -3 34701.1 951.620   1
 -11   2  -3 33685.7 890.800   2
 -11  -2  -2 5806.62 239.914   2
 -11  -2  -2 5315.68 348.254   1
 -11   2  -1 5398.44 297.762   1
 -11  -2  -1 5511.04 353.077   1
 -11   2   0 10086.1 407.321   1
 -11  -2   0 10334.6 483.749   1
 -11   2   1 5654.68 309.717   1
 -11  -2   1 5292.59 352.245   1
 -11  -2   2 5836.19 292.886   2
  11  -2   3 34175.5 854.520   1
 -11  -2   3 33658.9 815.174   2
  11  -2   4 5266.24 331.458   1
 -11  -2   4 5359.73 322.559   2
 -11   3  -9 2248.82 301.783   2
 -11   3  -8 6258.34 469.781   2
 -11   3  -7 3620.47 347.697   2
 -11  -3  -7 3429.90 244.878   2
 -11   3  -6 11604.0 577.454   2
 -11  -3  -6 12625.3 430.567   2
 -11   3  -5 357.737 128.304   2
 -11  -3  -5 760.256 104.524   2
 -11  -3  -4 38407.3 689.347   2
 -11   3  -4 37595.9 1025.55   2
 -11  -3  -3 7346.30 231.292   2
 -11  -3  -3 7338.27 434.620   1
 -11   3  -3 7014.83 409.842   2
 -11  -3  -2 28583.3 502.679   2
 -11  -3  -2 29355.2 879.514   1
 -11   3  -1 11813.5 421.063   1
 -11  -3  -1 11809.9 293.738   2
 -11  -3  -1 11324.2 522.654   1
 -11  -3   0 4273.12 324.719   1
 -11   3   0 5037.73 270.018   1
 -11  -3   0 4845.86 202.389   2
 -11   3   1 12347.8 435.259   1
 -11  -3   1 11727.4 536.506   1
 -11  -3   1 11907.9 363.292   2
 -11   3   2 28814.2 726.405   1
 -11  -3   2 29732.6 897.922   1
 -11  -3   2 29485.8 672.877   2
 -11  -3   3 7135.86 338.236   2
  11  -3   3 8203.14 378.026   1
 -11  -3   4 39271.2 925.497   2
  11  -3   4 38192.2 928.403   1
 -11   4  -9 2007.42 294.304   2
 -11   4  -8 8506.56 561.609   2
 -11   4  -7 7682.65 509.872   2
 -11   4  -6 201.056 139.857   2
 -11   4  -5 18358.4 737.393   2
 -11   4  -4 1645.60 224.056   2
 -11  -4  -3 17993.5 699.088   1
 -11   4  -3 16256.9 662.549   2
 -11  -4  -2 10244.0 516.543   1
 -11  -4  -1 11831.1 552.517   1
 -11  -4   0 15467.6 638.028   1
 -11   4   0 16415.7 465.192   1
 -11   4   1 12976.6 421.142   1
 -11  -4   1 12900.5 338.461   2
 -11  -4   1 12342.8 571.966   1
 -11  -4   2 9629.76 336.173   2
 -11   4   2 9979.96 379.357   1
 -11  -4   2 9900.51 516.183   1
 -11  -4   3 18279.6 536.749   2
  11  -4   4 1656.93 181.749   1
 -11  -4   4 1599.85 171.062   2
 -11  -4   5 16714.6 608.564   2
  11  -4   5 17360.0 607.536   1
 -11   5  -8 1011.80 239.935   2
 -11   5  -7 793.777 199.621   2
 -11   5  -6 14517.6 705.198   2
 -11   5  -5 192.621 156.272   2
 -11   5  -4 21962.8 830.675   2
 -11  -5  -3 4324.32 360.709   1
 -11   5  -3 5125.26 387.491   2
 -11  -5  -2 13583.1 624.890   1
 -11  -5  -1 17011.5 689.259   1
 -11  -5   0 2825.44 290.492   1
 -11  -5   1 17455.1 708.694   1
 -11   5   1 18252.8 458.274   1
 -11   5   2 14204.7 422.189   1
 -11  -5   2 14254.8 383.504   2
 -11  -5   2 13424.2 624.378   1
 -11  -5   3 4374.04 246.771   2
 -11  -5   4 21531.1 628.110   2
  11  -5   4 20597.2 604.557   1
 -11   6  -7 2122.43 309.356   2
 -11   6  -6 0.75932 167.401   2
 -11   6  -5 11673.8 639.046   2
 -11   6  -4 1536.06 253.603   2
 -11  -6  -3 4844.23 394.736   1
 -11   6  -3 5415.45 423.872   2
 -11  -6  -2 8357.08 498.762   1
 -11  -6  -1 1048.55 195.120   1
 -11  -6   0 8909.94 514.531   1
 -11  -6   1 460.939 146.062   1
 -11  -6   2 9668.27 543.805   1
 -11   6   2 9451.78 282.153   1
 -11   6   3 4727.28 226.008   1
 -11  -6   3 4266.73 379.295   1
 -11   7  -6 403.757 180.526   2
 -11   7  -5 1817.44 274.336   2
 -11   7  -4 2701.80 320.749   2
 -11   7  -3 543.738 174.059   2
 -11  -7  -3 530.711 159.232   1
 -11  -7  -2 693.189 183.322   1
 -11  -7  -1 4159.24 366.484   1
 -11  -7   0-19.6016 129.063   1
 -11  -7   1 4401.28 376.131   1
 -11  -7   2 403.554 154.941   1
 -11  -7   3 1118.01 222.068   1
 -11   8  -4 2487.83 316.797   2
 -11   8  -3 1286.13 233.348   2
 -11  -8  -2 5309.82 423.874   1
 -11   8  -2 5858.36 474.057   2
 -11  -8  -1 5667.63 438.267   1
 -11  -8   0 2690.37 312.775   1
 -11  -8   1 5115.16 417.309   1
 -11  -8   2 5181.27 431.833   1
 -11  -8   3 1934.78 283.992   1
 -11  -8   4 2486.34 332.662   1
 -11  -9  -2 5315.83 448.131   1
 -11   9  -2 6054.18 504.836   2
 -11  -9  -1 469.418 178.342   1
 -11  -9   0 9597.36 589.007   1
 -11  -9   1 1019.71 217.758   1
 -11  -9   2 5369.25 446.194   1
 -11  -9   3 2140.36 300.260   1
 -11  -9   4 776.426 218.676   1
 -11 -10  -2 345.695 168.558   1
 -11 -10  -1 6174.02 487.292   1
 -11 -10   0-125.452 161.875   1
 -11 -10   1 6667.94 514.342   1
 -11 -10   2 641.339 197.744   1
 -12   0 -10 763.370 198.908   2
 -12   0  -9 957.962 187.509   2
 -12   0  -8 884.615 186.142   2
 -12   0  -7 5584.74 374.419   2
 -12   0  -6 10955.7 501.892   2
 -12   0  -5 56306.6 1190.12   2
 -12   0  -4 22256.3 665.768   2
 -12   0  -3 57770.6 1146.58   2
 -12   0  -2 13653.1 549.557   1
 -12   0  -1 1987.11 214.112   1
 -12   0   0 1417.81 191.931   1
 -12   0   1 1920.91 215.114   1
 -12   0   2 14027.6 570.446   1
 -12   1 -10 3790.65 385.560   2
 -12  -1  -9 1385.99 222.010   2
 -12   1  -9 1134.05 203.314   2
 -12  -1  -8 2176.25 243.961   2
 -12   1  -8 2261.52 278.515   2
 -12   1  -7 2159.53 252.609   2
 -12  -1  -7 1834.75 209.058   2
 -12  -1  -6 32289.1 845.325   2
 -12   1  -6 30511.7 908.082   2
 -12  -1  -5 8703.15 396.119   2
 -12   1  -5 9080.54 457.231   2
 -12  -1  -4 52204.9 1038.91   2
 -12   1  -4 52261.0 1153.98   2
 -12  -1  -3 6542.46 400.086   1
 -12  -1  -3 6957.45 318.784   2
 -12   1  -3 7118.81 378.096   2
 -12   1  -2 18003.6 616.852   1
 -12  -1  -2 18193.2 523.662   2
 -12  -1  -2 17654.0 651.670   1
 -12   1  -1 3886.83 276.279   1
 -12  -1  -1 3795.24 294.728   1
 -12   1   0 7937.83 396.866   1
 -12  -1   0 8092.23 434.434   1
 -12   1   1 3606.32 270.670   1
 -12  -1   1 3919.53 307.292   1
 -12   1   2 18094.8 632.123   1
 -12  -1   2 17619.2 669.056   1
 -12   2 -10 869.644 212.575   2
 -12   2  -9 1358.95 238.627   2
 -12   2  -8 292.452 156.581   2
 -12  -2  -8 144.210 80.2203   2
 -12  -2  -7 3428.56 264.541   2
 -12   2  -7 3822.86 344.212   2
 -12  -2  -6 4057.77 265.088   2
 -12   2  -6 3967.68 329.817   2
 -12  -2  -5 23084.7 621.167   2
 -12   2  -5 23713.8 791.387   2
 -12  -2  -4 13235.9 423.251   2
 -12   2  -4 12182.7 541.108   2
 -12  -2  -3 9471.59 337.831   2
 -12  -2  -3 9314.69 493.420   1
 -12   2  -3 9156.99 454.289   2
 -12  -2  -2 248.519 117.386   1
 -12  -2  -2 271.445 72.5456   2
 -12   2  -1 1344.69 160.921   1
 -12  -2  -1 1188.30 181.484   1
 -12  -2   0 1354.20 198.332   1
 -12   2   0 1390.30 167.846   1
 -12  -2   1 1493.05 211.734   1
 -12   2   1 1461.94 176.649   1
 -12   2   2 289.644 123.548   1
 -12  -2   2 276.080 117.525   1
 -12  -2   2 121.194 74.4812   2
  12  -2   3 9647.48 454.162   1
 -12  -2   3 9861.68 430.242   2
 -12  -2   4 13018.3 527.276   2
 -12   3  -9 530.085 178.253   2
 -12   3  -8 740.296 191.743   2
 -12   3  -7 1271.63 229.453   2
 -12   3  -6 4905.67 387.602   2
 -12  -3  -6 5349.71 277.649   2
 -12  -3  -5 7211.53 290.530   2
 -12   3  -5 6424.07 425.141   2
 -12  -3  -4 25302.7 538.087   2
 -12   3  -4 24334.5 826.535   2
 -12  -3  -3 1300.23 212.366   1
 -12  -3  -3 1687.44 113.466   2
 -12   3  -3 1818.56 219.228   2
 -12  -3  -2 1995.58 239.837   1
 -12  -3  -2 1481.76 102.773   2
 -12   3  -1 1998.16 187.625   1
 -12  -3  -1 2123.39 129.185   2
 -12  -3  -1 1889.44 226.793   1
 -12  -3   0 18966.4 718.647   1
 -12   3   0 20283.1 598.060   1
 -12  -3   0 20280.5 472.988   2
 -12  -3   1 2326.95 261.113   1
 -12   3   1 1977.93 188.335   1
 -12  -3   1 2118.81 158.040   2
 -12  -3   2 1712.78 234.394   1
 -12   3   2 1824.21 188.395   1
 -12  -3   2 1880.57 168.693   2
 -12  -3   3 1561.36 169.387   2
 -12  -3   4 24806.1 727.012   2
  12  -3   4 24154.7 740.238   1
 -12   4  -8 1575.75 273.992   2
 -12   4  -7 1473.68 261.795   2
 -12   4  -6 1220.10 226.979   2
 -12   4  -5 1614.35 236.700   2
 -12   4  -4 4454.35 365.369   2
 -12  -4  -3 192.508 128.058   1
 -12   4  -3 251.994 132.803   2
 -12  -4  -2 2184.74 264.083   1
 -12  -4  -1 4277.73 345.219   1
 -12  -4   0 9215.74 234.433   2
 -12  -4   0 10181.9 534.851   1
 -12   4   0 9570.78 371.141   1
 -12  -4   1 4490.83 199.716   2
 -12  -4   1 4749.55 372.272   1
 -12   4   1 4770.27 267.488   1
 -12  -4   2 2014.59 158.372   2
 -12  -4   2 1955.56 246.638   1
 -12   4   2 1686.76 170.310   1
 -12  -4   3 330.004 92.4370   2
 -12  -4   4 5139.32 310.714   2
  12  -4   4 5098.07 316.249   1
 -12   5  -7 857.571 211.342   2
 -12   5  -6 2523.61 313.797   2
 -12   5  -5 779.706 192.043   2
 -12   5  -4 3284.81 321.771   2
 -12  -5  -3 260.338 142.177   1
 -12   5  -3 485.495 166.228   2
 -12  -5  -2 8434.40 506.480   1
 -12  -5  -1 5751.35 411.650   1
 -12  -5   0 12734.1 618.620   1
 -12  -5   1 5283.47 405.535   1
 -12   5   1 6086.61 270.629   1
 -12   5   2 8508.12 342.089   1
 -12  -5   2 8778.20 526.420   1
 -12  -5   3 222.391 154.193   1
 -12   5   3 528.621 103.586   1
 -12   6  -6 456.343 189.694   2
 -12   6  -5 1784.62 276.706   2
 -12   6  -4 868.991 219.475   2
 -12   6  -3 1698.89 255.508   2
 -12  -6  -3 2029.34 277.003   1
 -12  -6  -2 3006.88 322.570   1
 -12  -6  -1 19100.7 785.430   1
 -12  -6   0 1052.15 189.957   1
 -12  -6   1 17717.2 760.504   1
 -12  -6   2 3890.55 359.164   1
 -12  -6   3 1929.47 273.266   1
 -12   7  -5 757.473 200.271   2
 -12   7  -4 8122.30 564.095   2
 -12   7  -3 690.578 191.773   2
 -12  -7  -3 798.145 181.135   1
 -12  -7  -2 15551.8 729.879   1
 -12  -7  -1 849.485 201.675   1
 -12  -7   0 10566.6 599.505   1
 -12  -7   1 596.945 184.814   1
 -12  -7   2 15199.1 732.559   1
 -12  -7   3 1326.55 240.367   1
 -12  -7   4 8557.99 581.967   1
 -12   8  -3 7727.08 568.092   2
 -12  -8  -2 1058.13 241.230   1
 -12   8  -2 1215.35 248.307   2
 -12  -8  -1 2862.05 329.299   1
 -12  -8   0 876.188 208.869   1
 -12  -8   1 2831.94 337.792   1
 -12  -8   2 992.200 226.793   1
 -12  -8   3 6830.67 514.918   1
 -12  -8   4 3116.06 366.203   1
 -12  -9  -2 2123.40 301.541   1
 -12  -9  -1-65.7836 152.487   1
 -12  -9   0 6889.90 512.464   1
 -12  -9   1 402.459 142.837   1
 -12  -9   2 2799.52 348.550   1
 -12  -9   3 370.689 171.112   1
 -13   0  -9 33.8883 113.951   2
 -13   0  -8-11.2383 109.674   2
 -13   0  -7-86.1324 99.3275   2
 -13   0  -6-113.393 83.1846   2
 -13   0  -5-36.9656 85.2112   2
 -13   0  -4 16.8116 78.2132   2
 -13   0  -3 120.771 77.8754   2
 -13   0  -2 201.177 108.686   1
 -13   0  -1 28.0096 90.9826   1
 -13   0   0-58.7462 96.1019   1
 -13   0   1 73.7637 96.5759   1
 -13   0   2 58.9610 91.2063   1
 -13   1 -10 3052.13 356.746   2
 -13   1  -9 231.471 149.794   2
 -13  -1  -8 509.297 146.130   2
 -13   1  -8 199.949 118.635   2
 -13   1  -7 2290.91 271.468   2
 -13  -1  -7 2038.58 234.062   2
 -13  -1  -6 4487.93 304.897   2
 -13   1  -6 3944.63 323.753   2
 -13  -1  -5 662.618 127.052   2
 -13   1  -5 957.928 171.363   2
 -13  -1  -4 655.562 116.245   2
 -13   1  -4 728.693 147.797   2
 -13  -1  -3 734.940 115.668   2
 -13   1  -3 746.872 145.206   2
 -13  -1  -3 748.006 162.909   1
 -13   1  -2 2371.91 243.334   1
 -13  -1  -2 2156.75 245.492   1
 -13  -1  -2 2519.99 198.829   2
 -13   1  -1 2844.92 252.818   1
 -13  -1  -1 2554.28 260.258   1
 -13   1   0 11946.3 510.617   1
 -13  -1   0 11893.5 547.173   1
 -13   1   1 2889.37 255.017   1
 -13  -1   1 3023.90 286.179   1
 -13   1   2 1792.39 214.167   1
 -13  -1   2 2314.65 255.921   1
 -13   2  -9 7443.92 532.134   2
 -13   2  -8 166.815 149.563   2
 -13   2  -7 4629.36 386.415   2
 -13   2  -6 1093.61 205.196   2
 -13  -2  -6 1326.93 157.530   2
 -13  -2  -5 11333.1 425.866   2
 -13   2  -5 10794.9 540.524   2
 -13  -2  -4 5842.45 284.349   2
 -13   2  -4 5625.77 379.068   2
 -13  -2  -3 10251.9 363.531   2
 -13  -2  -3 10458.8 540.175   1
 -13   2  -3 9979.55 491.003   2
 -13  -2  -2 4483.43 235.053   2
 -13  -2  -2 4562.74 356.750   1
 -13   2  -1 23476.8 708.242   1
 -13  -2  -1 22858.8 793.364   1
 -13  -2   0 345.666 133.085   1
 -13   2   0 174.916 93.4965   1
 -13   2   1 23117.2 712.270   1
 -13  -2   1 24009.0 820.161   1
 -13   2   2 4452.75 312.584   1
 -13  -2   2 4584.14 359.955   1
 -13  -2   2 4859.15 290.463   2
 -13  -2   3 10502.5 459.632   2
 -13   3  -9 87.6754 132.867   2
 -13   3  -8 5760.00 467.473   2
 -13   3  -7 2356.89 309.821   2
 -13   3  -6 6524.44 452.826   2
 -13   3  -5 2135.56 260.670   2
 -13  -3  -4 10995.4 338.592   2
 -13   3  -4 11648.3 572.868   2
 -13  -3  -3 5641.96 220.956   2
 -13  -3  -3 5553.26 413.050   1
 -13   3  -3 5450.84 388.260   2
 -13  -3  -2 12312.8 329.244   2
 -13  -3  -2 11812.1 588.321   1
 -13   3  -1 733.287 121.615   1
 -13  -3  -1 951.588 98.1566   2
 -13  -3  -1 967.376 196.993   1
 -13  -3   0 39583.6 1116.66   1
 -13   3   0 40439.3 934.644   1
 -13  -3   0 41276.9 769.912   2
 -13   3   1 1118.54 158.370   1
 -13  -3   1 898.508 120.670   2
 -13  -3   1 855.846 182.196   1
 -13   3   2 11547.7 482.791   1
 -13  -3   2 12076.5 595.984   1
 -13  -3   2 12454.3 440.602   2
 -13   3   3 6055.03 365.759   1
 -13  -3   3 5700.57 323.769   2
 -13  -3   4 11101.6 486.635   2
 -13   4  -8 612.281 208.157   2
 -13   4  -7 6195.27 480.532   2
 -13   4  -6 1305.45 217.628   2
 -13   4  -5 7885.88 508.162   2
 -13   4  -4 4750.08 383.445   2
 -13  -4  -3 14944.3 687.757   1
 -13   4  -3 13625.2 639.261   2
 -13  -4  -2 6296.17 443.078   1
 -13  -4  -1 34140.4 1050.23   1
 -13  -4   0 304.343 137.323   1
 -13   4   0 491.192 103.570   1
 -13  -4   1 33830.8 1053.18   1
 -13   4   1 35401.2 823.569   1
 -13   4   2 7073.86 355.599   1
 -13  -4   2 7379.72 482.712   1
 -13   4   3 14718.9 541.251   1
 -13  -4   3 15803.0 722.372   1
 -13   5  -7 579.633 178.223   2
 -13   5  -6 3969.38 390.986   2
 -13   5  -5 4487.36 403.173   2
 -13   5  -4 3783.86 369.796   2
 -13  -5  -3 1685.42 250.849   1
 -13   5  -3 1418.69 239.393   2
 -13  -5  -2 22869.7 874.706   1
 -13  -5  -1 123.634 120.457   1
 -13  -5   0 8438.27 525.276   1
 -13   5   1 88.4042 66.5226   1
 -13  -5   1 397.772 174.286   1
 -13   5   2 23241.3 621.553   1
 -13  -5   2 23387.5 897.368   1
 -13   5   3 1456.95 168.415   1
 -13  -5   3 817.030 234.577   1
 -13   6  -6 554.429 168.826   2
 -13   6  -5 195.493 145.216   2
 -13   6  -4 2684.28 330.310   2
 -13  -6  -3 8343.07 550.283   1
 -13   6  -3 7796.14 536.038   2
 -13  -6  -2 3975.43 378.458   1
 -13  -6  -1 7375.96 501.325   1
 -13  -6   0 3138.57 328.809   1
 -13  -6   1 6717.55 482.712   1
 -13  -6   2 4190.53 397.688   1
 -13  -6   3 8431.26 554.825   1
 -13  -6   4 2915.74 358.890   1
 -13   7  -4 953.930 223.372   2
 -13   7  -3 1254.07 250.748   2
 -13  -7  -3 1206.12 228.920   1
 -13  -7  -2 3991.40 395.819   1
 -13  -7  -1 6070.64 471.207   1
 -13  -7   0 663.088 182.491   1
 -13  -7   1 6711.30 505.161   1
 -13  -7   2 3861.23 389.922   1
 -13  -7   3 1267.34 240.170   1
 -13  -7   4 951.955 210.387   1
 -13  -8  -2 306.651 137.083   1
 -13  -8  -1 1647.57 250.938   1
 -13  -8   0 702.603 182.437   1
 -13  -8   1 1568.13 272.490   1
 -13  -8   2 399.517 169.304   1
 -13  -8   3 3238.87 364.404   1
 -14   0  -8 6022.51 425.092   2
 -14   0  -7 14490.9 630.645   2
 -14   0  -6 8279.71 456.826   2
 -14   0  -5 35401.3 947.271   2
 -14   0  -4 7045.43 384.262   2
 -14   0  -3 11299.3 483.927   2
 -14   0  -2 4450.58 338.279   1
 -14   0  -1 38717.1 1042.65   1
 -14   0   0 90.7620 98.8688   1
 -14   0   1 37587.8 1034.26   1
 -14   0   2 3623.65 320.031   1
 -14   0   3 11701.1 577.992   1
 -14   1  -9 543.479 182.303   2
 -14   1  -8 4288.03 383.901   2
 -14  -1  -7 5280.95 357.964   2
 -14   1  -7 5449.19 401.061   2
 -14  -1  -6 16538.3 609.346   2
 -14   1  -6 15668.7 661.910   2
 -14  -1  -5 574.894 125.472   2
 -14   1  -5 794.840 165.785   2
 -14  -1  -4 13439.1 500.496   2
 -14   1  -4 13046.3 561.693   2
 -14  -1  -3 10338.8 543.948   1
 -14  -1  -3 10672.0 431.737   2
 -14   1  -3 10386.3 491.430   2
 -14   1  -2 10721.5 511.577   1
 -14  -1  -2 10699.2 429.276   2
 -14  -1  -2 10952.9 550.518   1
 -14   1  -1 8912.72 465.643   1
 -14  -1  -1 8724.18 489.746   1
 -14  -1   0 12764.7 593.630   1
 -14   1   0 12249.1 543.730   1
 -14   1   1 8267.93 445.778   1
 -14  -1   1 8764.06 489.922   1
 -14   1   2 11169.1 530.969   1
 -14  -1   2 10444.8 547.633   1
 -14   1   3 10956.8 547.743   1
 -14  -1   3 10576.6 567.056   1
 -14   2  -9 2158.80 310.506   2
 -14   2  -8 2143.89 294.020   2
 -14   2  -7 7687.77 507.759   2
 -14   2  -6 4898.81 393.402   2
 -14  -2  -5 10037.1 407.303   2
 -14   2  -5 9304.22 514.601   2
 -14  -2  -4 1206.22 145.269   2
 -14   2  -4 1378.02 205.274   2
 -14  -2  -3 13962.7 446.686   2
 -14  -2  -3 13908.8 651.015   1
 -14   2  -3 13606.2 597.169   2
 -14  -2  -2 16506.5 489.238   2
 -14  -2  -2 16892.8 709.348   1
 -14   2  -1 8470.09 429.969   1
 -14  -2  -1 7706.87 473.657   1
 -14  -2   0 113.946 110.528   1
 -14   2   0-76.5050 106.659   1
 -14   2   1 7664.69 418.151   1
 -14  -2   1 8643.53 499.382   1
 -14   2   2 14916.0 599.363   1
 -14  -2   2 14842.6 671.621   1
 -14  -2   2 16721.0 569.777   2
 -14   2   3 14144.5 598.105   1
 -14  -2   3 14307.2 676.528   1
 -14  -2   3 14543.0 560.765   2
 -14   3  -8 1735.70 286.029   2
 -14   3  -7 5871.32 461.784   2
 -14   3  -6 801.871 194.110   2
 -14   3  -5 680.320 179.857   2
 -14   3  -4 1364.41 228.807   2
 -14  -3  -3 8395.53 519.138   1
 -14   3  -3 7975.60 480.578   2
 -14  -3  -2 1613.25 232.266   1
 -14  -3  -2 1986.25 133.486   2
 -14   3  -1 552.410 123.557   1
 -14  -3  -1 812.562 97.9348   2
 -14  -3  -1 851.296 188.408   1
 -14  -3   0 434.338 132.245   1
 -14   3   0 666.441 129.342   1
 -14  -3   1 820.315 188.572   1
 -14   3   1 779.141 140.788   1
 -14  -3   2 2055.90 271.846   1
 -14   3   2 1698.30 203.444   1
 -14   3   3 8614.31 448.279   1
 -14  -3   3 8200.37 524.651   1
 -14   4  -7 524.767 174.705   2
 -14   4  -6 2373.04 310.256   2
 -14   4  -5 2159.97 290.432   2
 -14   4  -4 372.626 162.260   2
 -14  -4  -3 1476.76 247.296   1
 -14   4  -3 1491.86 240.234   2
 -14  -4  -2 7200.66 483.288   1
 -14  -4  -1 3827.08 359.044   1
 -14   4   0 2028.76 201.154   1
 -14  -4   0 2035.15 265.645   1
 -14  -4   1 3141.70 330.215   1
 -14   4   1 2920.15 234.052   1
 -14   4   2 7849.55 390.779   1
 -14  -4   2 8177.29 530.216   1
 -14   4   3 1378.91 183.520   1
 -14  -4   3 1337.73 245.786   1
 -14   5  -6 2791.50 344.593   2
 -14   5  -5 716.721 190.115   2
 -14   5  -4 2668.92 325.793   2
 -14  -5  -3 1221.99 230.709   1
 -14   5  -3 1719.72 251.774   2
 -14  -5  -2 1373.20 242.653   1
 -14  -5  -1 2556.51 305.739   1
 -14  -5   0 12655.8 666.109   1
 -14  -5   1 2598.60 316.587   1
 -14   5   1 3129.62 226.393   1
 -14  -5   2 1252.28 241.911   1
 -14   5   2 1462.50 163.008   1
 -14  -5   3 2254.25 300.676   1
 -14   5   3 1950.01 201.990   1
 -14  -5   4 2376.04 339.722   1
 -14   6  -5 10981.8 669.948   2
 -14   6  -4 496.155 178.785   2
 -14  -6  -3 11884.6 671.173   1
 -14   6  -3 10181.6 621.592   2
 -14  -6  -2 897.328 211.020   1
 -14  -6  -1 9010.94 574.842   1
 -14  -6   0 462.541 186.984   1
 -14  -6   1 8506.39 572.554   1
 -14  -6   2 1021.17 234.557   1
 -14  -6   3 12943.0 713.033   1
 -14  -6   4 903.030 219.247   1
 -14   7  -3 151.301 139.551   2
 -14  -7  -3-195.082 148.275   1
 -14  -7  -2 6327.67 500.912   1
 -14  -7  -1 1508.80 255.392   1
 -14  -7   0 3106.48 359.393   1
 -14  -7   1 1031.16 217.257   1
 -14  -7   2 6802.23 527.524   1
 -14  -7   3-102.386 144.073   1
 -15   0  -7 108.306 125.890   2
 -15   0  -6-194.561 131.644   2
 -15   0  -5 69.9848 98.3137   2
 -15   0  -4 34.1136 86.6410   2
 -15   0  -3-168.210 106.138   2
 -15   0  -2 31.7586 101.609   1
 -15   0  -2 98.9898 110.688   2
 -15   0  -1 16.7284 106.944   1
 -15   0   0-197.863 124.385   1
 -15   0   1 83.3374 126.133   1
 -15   0   2-39.1357 120.093   1
 -15   0   3 140.908 117.478   1
 -15   1  -8 1995.15 274.725   2
 -15   1  -7 517.748 161.470   2
 -15   1  -6 2519.96 285.101   2
 -15  -1  -5 44.4829 85.1653   2
 -15   1  -5-1.91574 97.5138   2
 -15  -1  -4 602.663 118.320   2
 -15   1  -4 1030.03 189.792   2
 -15  -1  -3 1524.50 173.463   2
 -15   1  -3 1534.08 210.279   2
 -15   1  -2 6803.35 429.613   1
 -15  -1  -2 6967.83 358.119   2
 -15  -1  -2 7264.92 465.789   1
 -15   1  -1 827.319 170.047   1
 -15  -1  -1 856.341 178.731   1
 -15   1   0 2659.43 267.934   1
 -15  -1   0 2850.85 301.069   1
 -15   1   1 986.969 183.518   1
 -15  -1   1 806.565 188.275   1
 -15   1   2 7450.59 453.538   1
 -15  -1   2 7607.35 485.523   1
 -15  -1   3 1534.73 239.268   1
 -15   1   3 2203.15 263.148   1
 -15   2  -8 216.660 158.760   2
 -15   2  -7 5538.06 439.209   2
 -15   2  -6 324.211 161.372   2
 -15   2  -5 10689.4 568.460   2
 -15   2  -4 1231.70 205.856   2
 -15  -2  -3 1874.14 170.720   2
 -15   2  -3 1407.76 220.723   2
 -15  -2  -3 1733.26 252.185   1
 -15  -2  -2 508.016 166.064   1
 -15  -2  -2 453.097 93.9636   2
 -15   2  -1 13985.0 586.676   1
 -15  -2  -1 13159.6 645.146   1
 -15   2   0 222.241 122.612   1
 -15  -2   0-133.942 148.433   1
 -15   2   1 13577.5 583.477   1
 -15  -2   1 13235.0 650.885   1
 -15  -2   2 366.461 142.898   1
 -15   2   2 270.751 113.680   1
 -15  -2   3 1154.32 222.743   1
 -15   2   3 1593.25 213.811   1
 -15   3  -7 1030.17 228.335   2
 -15   3  -6 12163.6 659.047   2
 -15   3  -5 993.439 200.777   2
 -15   3  -4 8837.92 532.770   2
 -15   3  -3 2176.69 267.172   2
 -15  -3  -3 2239.60 297.938   1
 -15  -3  -2 10068.2 580.977   1
 -15  -3  -1 2661.75 309.247   1
 -15   3  -1 2439.65 237.669   1
 -15  -3   0 36245.0 1138.70   1
 -15   3   0 36977.3 962.626   1
 -15  -3   1 2400.48 296.826   1
 -15   3   1 2333.63 232.727   1
 -15   3   2 10234.4 496.757   1
 -15  -3   2 11144.1 622.492   1
 -15  -3   3 2838.78 335.550   1
 -15   3   3 2367.35 258.774   1
 -15   3   4 10302.0 527.335   1
 -15  -3   4 9574.09 596.596   1
 -15   4  -6 641.666 182.910   2
 -15   4  -5 2092.42 284.692   2
 -15   4  -4 4871.91 414.771   2
 -15  -4  -3 9105.43 576.660   1
 -15   4  -3 8593.17 539.906   2
 -15  -4  -2 878.396 210.912   1
 -15  -4  -1 13629.1 697.579   1
 -15   4   0 7895.13 398.034   1
 -15  -4   0 8257.69 540.610   1
 -15  -4   1 13770.9 703.155   1
 -15   4   1 14376.5 545.873   1
 -15   4   2 976.856 156.607   1
 -15  -4   2 839.909 189.025   1
 -15   4   3 8538.02 443.823   1
 -15  -4   3 9291.36 593.562   1
 -15   4   4 5055.65 354.505   1
 -15  -4   4 5426.50 470.918   1
 -15   5  -5 4411.03 416.133   2
 -15   5  -4 5937.34 482.476   2
 -15   5  -3 280.613 174.168   2
 -15  -5  -3 61.3843 147.993   1
 -15  -5  -2 11830.8 667.606   1
 -15  -5  -1 2417.61 298.797   1
 -15  -5   0 9141.49 578.051   1
 -15  -5   1 2080.75 309.993   1
 -15  -5   2 10995.6 650.090   1
 -15  -5   3 122.322 166.558   1
 -15  -5   4 4793.98 446.858   1
 -15   6  -3 3684.35 394.442   2
 -15  -6  -3 4087.41 417.040   1
 -15  -6  -2 633.655 195.959   1
 -15  -6  -1 2457.95 316.924   1
 -15  -6   0 4620.04 424.545   1
 -15  -6   1 2716.82 350.242   1
 -15  -6   2 1207.16 244.159   1
 -16   0  -5 1982.30 232.942   2
 -16   0  -4 951.058 159.929   2
 -16   0  -3 446.328 126.518   2
 -16   0  -2 1001.86 198.230   1
 -16   0  -2 764.665 160.412   2
 -16   0  -1 37476.2 1107.11   1
 -16   0   0 2756.27 300.160   1
 -16   0   1 37904.8 1122.67   1
 -16   0   2 989.505 202.126   1
 -16   0   3 419.303 160.425   1
 -16   0   4 1114.73 225.102   1
 -16   1  -7 825.718 204.538   2
 -16   1  -6 3213.20 320.656   2
 -16   1  -5 2912.40 293.640   2
 -16   1  -4-30.8465 108.444   2
 -16  -1  -3 394.560 115.554   2
 -16   1  -3 190.099 102.161   2
 -16   1  -2 21592.2 803.134   1
 -16  -1  -2 22071.5 683.370   2
 -16  -1  -2 23118.8 877.168   1
 -16   1  -1 1035.80 194.672   1
 -16  -1  -1 730.178 171.252   1
 -16   1   0 55929.5 1352.03   1
 -16  -1   0 56393.5 1426.41   1
 -16   1   1 893.654 180.969   1
 -16  -1   1 1072.31 213.969   1
 -16   1   2 22859.7 830.715   1
 -16  -1   2 21186.2 847.670   1
 -16   1   3 542.508 176.288   1
 -16  -1   3 183.734 160.431   1
 -16   1   4 55.1933 119.729   1
 -16  -1   4 224.559 175.898   1
 -16   2  -7 2722.79 332.770   2
 -16   2  -6 1041.35 225.790   2
 -16   2  -5 1544.92 238.129   2
 -16   2  -4 1464.44 223.493   2
 -16   2  -3 684.417 177.765   2
 -16  -2  -3 655.561 184.671   1
 -16  -2  -2 405.219 182.951   1
 -16   2  -1 19585.9 731.878   1
 -16  -2  -1 19602.9 819.612   1
 -16   2   0 107.380 103.967   1
 -16  -2   0 182.009 153.921   1
 -16  -2   1 19791.9 832.778   1
 -16   2   1 19394.5 732.227   1
 -16   2   2 601.778 164.147   1
 -16  -2   2 453.112 173.371   1
 -16   2   3 829.399 186.221   1
 -16  -2   3 748.538 198.509   1
 -16  -2   4 1650.87 274.950   1
 -16   2   4 1451.79 238.854   1
 -16   3  -7 175.423 170.815   2
 -16   3  -6 85.3360 151.842   2
 -16   3  -5 202.998 156.392   2
 -16   3  -4 745.527 182.745   2
 -16   3  -3 1100.20 203.265   2
 -16  -3  -3 999.303 223.200   1
 -16  -3  -2 1234.06 223.638   1
 -16  -3  -1 683.874 180.299   1
 -16   3  -1 706.763 137.813   1
 -16   3   0 11873.1 542.972   1
 -16  -3   0 12633.7 675.823   1
 -16  -3   1 888.721 211.112   1
 -16   3   1 749.192 150.449   1
 -16   3   2 1235.48 196.620   1
 -16  -3   2 896.616 209.440   1
 -16  -3   3 397.018 165.635   1
 -16   3   3 1036.30 193.675   1
 -16   3   4 1177.01 210.250   1
 -16  -3   4 1082.48 245.053   1
 -16   4  -6 316.833 180.417   2
 -16   4  -5 4814.96 433.034   2
 -16   4  -4 1174.52 246.134   2
 -16   4  -3 1301.90 239.004   2
 -16  -4  -3 1702.43 278.850   1
 -16  -4  -2 99.4852 128.329   1
 -16  -4  -1 1558.15 259.226   1
 -16   4   0 688.855 145.382   1
 -16  -4   0 617.194 167.769   1
 -16  -4   1 1722.25 270.686   1
 -16   4   1 1366.02 183.948   1
 -16  -4   2 430.718 191.964   1
 -16   4   2 161.262 105.444   1
 -16  -4   3 1679.18 276.515   1
 -16   4   3 1271.54 193.682   1
 -16  -4   4 1192.25 247.710   1
 -16   5  -4 10580.3 650.394   2
 -16   5  -3 380.212 166.046   2
 -16  -5  -2 3072.77 356.757   1
 -16  -5  -1-43.0448 151.626   1
 -16  -5   0 168.453 153.904   1
 -16  -5   1 727.705 209.300   1
 -16  -5   2 3543.51 400.730   1
 -17   0  -3-96.8393 90.3779   2
 -17   0  -2-376.079 159.790   1
 -17   0  -2 129.914 102.420   2
 -17   0  -1 128.762 134.581   1
 -17   0   0-61.9712 126.379   1
 -17   0   1-92.9762 126.515   1
 -17   0   2 324.607 154.530   1
 -17   0   3 7.53272 119.001   1
 -17   0   4 357.603 170.372   1
 -17   1  -5-75.6684 112.840   2
 -17   1  -4 1237.93 205.037   2
 -17   1  -3 591.435 160.312   2
 -17  -1  -2 2363.15 316.757   1
 -17   1  -2 1714.19 234.310   2
 -17   1  -2 1678.20 252.731   1
 -17   1  -1 662.323 170.236   1
 -17  -1  -1 502.073 182.244   1
 -17   1   0 10.6472 124.477   1
 -17  -1   0 340.948 148.463   1
 -17  -1   1 280.132 156.275   1
 -17   1   1 499.782 171.462   1
 -17   1   2 2082.71 279.997   1
 -17  -1   2 1770.71 267.348   1
 -17   1   3 218.336 131.528   1
 -17  -1   3 451.126 184.621   1
 -17   1   4 1866.97 278.901   1
 -17  -1   4 1406.40 270.657   1
 -17   1   5 261.301 155.440   1
 -17  -1   5 135.632 153.348   1
 -17   2  -6 1972.92 280.684   2
 -17   2  -5 4105.13 371.658   2
 -17   2  -4 598.174 173.336   2
 -17   2  -3 7211.54 481.397   2
 -17  -2  -2 671.240 194.689   1
 -17   2  -1 7841.15 476.780   1
 -17  -2  -1 8389.67 553.989   1
 -17   2   0 501.132 153.977   1
 -17  -2   0 337.394 167.579   1
 -17  -2   1 7876.26 541.741   1
 -17   2   1 7992.73 479.122   1
 -17   2   2 737.243 188.575   1
 -17  -2   2 275.643 156.653   1
 -17   2   3 6741.86 462.979   1
 -17  -2   3 7315.45 539.078   1
 -17  -2   4 604.182 193.338   1
 -17   2   4 857.146 218.585   1
 -17   2   5 4318.29 395.533   1
 -17   3  -6 8169.88 558.578   2
 -17   3  -5 1741.59 279.598   2
 -17   3  -4 5788.87 458.277   2
 -17   3  -3 1363.68 240.057   2
 -17  -3  -3 1924.10 290.192   1
 -17  -3  -2 6613.72 509.845   1
 -17  -3  -1 249.093 150.150   1
 -17   3   0 6287.56 407.934   1
 -17  -3   0 5043.85 448.721   1
 -17  -3   1 11.6632 127.514   1
 -17   3   1 34.5059 121.169   1
 -17   3   2 6551.25 431.505   1
 -17  -3   2 6116.65 491.701   1
 -17  -3   3 1952.45 314.222   1
 -17   3   3 1407.08 227.878   1
 -17   3   4 6231.22 441.144   1
 -17   3   5 1608.72 253.974   1
 -17   4  -4 3160.75 366.128   2
 -17   4  -3 11147.0 649.410   2
 -17  -4  -1 8299.74 581.238   1
 -17  -4   0 506.396 210.319   1
 -17  -4   1 7262.82 545.601   1
 -18   0  -2 9417.80 584.019   1
 -18   0  -1 17993.5 807.784   1
 -18   0   0-95.6673 133.330   1
 -18   0   1 17840.4 802.288   1
 -18   0   2 10902.1 639.134   1
 -18   0   3 8702.16 580.979   1
 -18   0   4 2403.26 333.472   1
 -18   1  -3 6361.81 438.255   2
 -18  -1  -2 5377.96 451.460   1
 -18   1  -2 5182.21 392.390   2
 -18   1  -1 4610.45 393.331   1
 -18  -1  -1 4344.32 406.458   1
 -18   1   0 9200.98 556.803   1
 -18  -1   0 8324.20 557.657   1
 -18  -1   1 4429.34 416.491   1
 -18   1   1 5086.68 414.953   1
 -18   1   2 5954.19 460.337   1
 -18  -1   2 6584.44 501.711   1
 -18   1   3 7622.99 529.001   1
 -18  -1   3 6217.73 507.529   1
 -18   1   4 2757.52 324.921   1
 -18  -1   4 2019.34 302.002   1
 -18   1   5 482.372 186.571   1
 -18   2  -5 2990.92 323.564   2
 -18   2  -4 1063.16 211.404   2
 -18   2  -3 2702.86 311.544   2
 -18  -2  -2 9865.30 624.045   1
 -18   2  -2 9114.48 555.561   2
 -18   2  -1 5743.83 427.264   1
 -18  -2  -1 5223.12 456.552   1
 -18   2   0 589.275 154.523   1
 -18  -2   0 757.086 204.313   1
 -18  -2   1 5329.44 475.424   1
 -18   2   1 5339.96 415.974   1
 -18   2   2 9269.03 551.487   1
 -18  -2   2 9678.00 628.594   1
 -18   2   3 2811.85 326.846   1
 -18   2   4 1396.45 256.846   1
 -18   2   5 3202.20 359.513   1
 -18   3  -5 1299.30 247.195   2
 -18   3  -4-82.4868 143.160   2
 -18   3  -3 4557.26 408.969   2
 -18   3  -2 1405.74 250.408   2
 -18   3   0 1774.56 232.980   1
 -18   3   1 3302.40 311.600   1
 -18   3   2 768.919 169.293   1
 -18   3   3 4704.02 391.989   1
 -18   4  -3 278.012 165.070   2
 -18   4  -2 2731.51 346.074   2
 -19   0  -2-276.514 162.498   1
 -19   0  -1-57.0789 126.095   1
 -19   0   0-78.8416 149.627   1
 -19   0   1-201.587 152.155   1
 -19   0   2 441.418 149.753   1
 -19   0   3 63.6388 149.825   1
 -19   1  -1 214.988 142.862   1
 -19  -1  -1-69.7842 139.770   1
 -19   1   0 2005.11 294.620   1
 -19  -1   0 2032.01 301.993   1
 -19   1   1 70.8685 136.919   1
 -19  -1   1-42.7133 148.380   1
 -19   1   2 1785.35 270.576   1
 -19   1   3 70.1967 155.865   1
 -19   1   4 605.031 197.524   1
 -19   2  -3 2676.29 326.561   2
 -19   2  -2 263.430 142.706   2
 -19   2  -1 3757.88 365.733   1
 -19   2   0 137.560 147.171   1
 -19   2   1 3523.44 353.744   1
 -19   2   2 431.221 192.698   1
 -19   2   3 2266.25 304.734   1
 -19   2   4 1919.19 301.783   1
 -19   3  -3 2093.73 294.825   2
 -19   3  -2 5194.05 447.648   2
 -20   1  -1 977.073 216.423   1
 -20   1   0 389.302 193.114   1
 -20   1   1 1502.53 257.932   1
   0   0   0    0.00    0.00   0
 
TITL bmo2852m in Pna2(1)
REM Pna2(1) (#33, found as Pc2(1)n in cab setting)
CELL 0.71073  14.924476   9.506235   9.757815  90.0000  90.0000  90.0000
ZERR    2.00   0.000424   0.000277   0.000319   0.0000   0.0000   0.0000
LATT -1
SYMM -x,-y, z+1/2
SYMM  x+1/2,-y+1/2, z
SYMM -x+1/2, y+1/2, z+1/2
SFAC C H N O Cu
UNIT 40.00 40.00 10.00 40.00 2.00
TREF
HKLF 4
END
;
_shelx_hkl_checksum              1889


