####################################################################### 
# 
# This file contains crystal structure data downloaded from the 
# Cambridge Structural Database (CSD) hosted by the Cambridge 
# Crystallographic Data Centre (CCDC).
# 
# Full information about CCDC data access policies and citation 
# guidelines are available at http://www.ccdc.cam.ac.uk/access/V1 
# 
# Audit and citation data items may have been added by the CCDC. 
# Please retain this information to preserve the provenance of 
# this file and to allow appropriate attribution of the data. 
# 
#######################################################################

data_bmo285cu
_audit_block_doi                 10.5517/ccdc.csd.cc1lryq0
_database_code_depnum_ccdc_archive 'CCDC 1482783'
_audit_update_record             
;
2016-05-31 deposited with the CCDC.	2021-02-17 downloaded from the CCDC.
;

_audit_creation_method           SHELXL-2014/7
_shelx_SHELXL_version_number     2014/7
_chemical_name_systematic        ?
_chemical_name_common            ?
_chemical_melting_point          ?
_chemical_formula_moiety         ?
_chemical_formula_sum            'C20 H28 Cl2 Cu N8'
_chemical_formula_weight         514.94

loop_
_atom_type_symbol
_atom_type_description
_atom_type_scat_dispersion_real
_atom_type_scat_dispersion_imag
_atom_type_scat_source
C C 0.0033 0.0016 'International Tables Vol C Tables 4.2.6.8 and 6.1.1.4'
H H 0.0000 0.0000 'International Tables Vol C Tables 4.2.6.8 and 6.1.1.4'
N N 0.0061 0.0033 'International Tables Vol C Tables 4.2.6.8 and 6.1.1.4'
Cl Cl 0.1484 0.1585 'International Tables Vol C Tables 4.2.6.8 and 6.1.1.4'
Cu Cu 0.3201 1.2651 'International Tables Vol C Tables 4.2.6.8 and 6.1.1.4'

_space_group_crystal_system      monoclinic
_space_group_IT_number           14
_space_group_name_H-M_alt        'P 21/c'
_space_group_name_Hall           '-P 2ybc'

_shelx_space_group_comment       
;
The symmetry employed for this shelxl refinement is uniquely defined
by the following loop, which should always be used as a source of
symmetry information in preference to the above space-group names.
They are only intended as comments.
;

loop_
_space_group_symop_operation_xyz
'x, y, z'
'-x, y+1/2, -z+1/2'
'-x, -y, -z'
'x, -y-1/2, z-1/2'

_cell_length_a                   7.6061(5)
_cell_length_b                   17.6047(6)
_cell_length_c                   8.9119(5)
_cell_angle_alpha                90
_cell_angle_beta                 114.965(7)
_cell_angle_gamma                90
_cell_volume                     1081.83(11)
_cell_formula_units_Z            2
_cell_measurement_temperature    130(2)
_cell_measurement_reflns_used    1450
_cell_measurement_theta_min      4.27
_cell_measurement_theta_max      28.20

_exptl_crystal_description       plate
_exptl_crystal_colour            blue
_exptl_crystal_density_meas      ?
_exptl_crystal_density_method    ?
_exptl_crystal_density_diffrn    1.581
_exptl_crystal_F_000             534
_exptl_transmission_factor_min   ?
_exptl_transmission_factor_max   ?
_exptl_crystal_size_max          0.39
_exptl_crystal_size_mid          0.16
_exptl_crystal_size_min          0.07
_exptl_absorpt_coefficient_mu    1.283
_shelx_estimated_absorpt_T_min   0.635
_shelx_estimated_absorpt_T_max   0.916
_exptl_absorpt_correction_type   multi-scan
_exptl_absorpt_correction_T_min  0.95620
_exptl_absorpt_correction_T_max  1.00000
_exptl_absorpt_process_details   
;
CrysAlisPro 1.171.38.41 (Rigaku Oxford Diffraction, 2015)
Empirical absorption correction using spherical harmonics,
implemented in SCALE3 ABSPACK scaling algorithm.
;
_exptl_absorpt_special_details   ?

_diffrn_radiation_probe          x-ray
_diffrn_radiation_source         'fine-focus sealed tube'
_diffrn_radiation_monochromator  graphite
_diffrn_measurement_device       'four-circle diffractometer'
_diffrn_detector                 'CCD plate'
_diffrn_detector_type            AtlasS2
_diffrn_ambient_temperature      130(2)
_diffrn_radiation_wavelength     0.71073
_diffrn_radiation_type           MoK\a
_diffrn_source                   'sealed X-ray tube'
_diffrn_measurement_device_type  'New Xcalibur, AtlasS2'
_diffrn_measurement_method       '\w scans'
_diffrn_detector_area_resol_mean 10.6168
_diffrn_reflns_number            3205
_diffrn_reflns_av_unetI/netI     0.0318
_diffrn_reflns_av_R_equivalents  0.0180
_diffrn_reflns_limit_h_min       -9
_diffrn_reflns_limit_h_max       10
_diffrn_reflns_limit_k_min       -22
_diffrn_reflns_limit_k_max       15
_diffrn_reflns_limit_l_min       -8
_diffrn_reflns_limit_l_max       11
_diffrn_reflns_theta_min         3.423
_diffrn_reflns_theta_max         28.433
_diffrn_reflns_theta_full        25.500
_diffrn_measured_fraction_theta_max 0.732
_diffrn_measured_fraction_theta_full 0.887
_diffrn_reflns_Laue_measured_fraction_max 0.732
_diffrn_reflns_Laue_measured_fraction_full 0.887
_diffrn_reflns_point_group_measured_fraction_max 0.732
_diffrn_reflns_point_group_measured_fraction_full 0.887
_reflns_number_total             1988
_reflns_number_gt                1749
_reflns_threshold_expression     >2\s(I)
_reflns_Friedel_coverage         0.000
_reflns_Friedel_fraction_max     .
_reflns_Friedel_fraction_full    .

_reflns_special_details          
;
 Reflections were merged by SHELXL according to the crystal
 class for the calculation of statistics and refinement.
 
 _reflns_Friedel_fraction is defined as the number of unique
 Friedel pairs measured divided by the number that would be
 possible theoretically, ignoring centric projections and
 systematic absences.
;
_computing_data_collection       'CrysAlisPro 1.171.38.41 (Rigaku OD, 2015)'
_computing_cell_refinement       'CrysAlisPro 1.171.38.41 (Rigaku OD, 2015)'
_computing_data_reduction        'CrysAlisPro 1.171.38.41 (Rigaku OD, 2015)'
_computing_structure_solution    'SHELXS-2014 (Sheldrick, 2014)'
_computing_structure_refinement  'SHELXL-2014 (Sheldrick, 2014)'
_computing_molecular_graphics    'ShelXle (H\"ubschle, 2011)'
_computing_publication_material  'CIFTAB-2014 (Sheldrick, 2014)'

_refine_special_details          ?
_refine_ls_structure_factor_coef Fsqd
_refine_ls_matrix_type           full
_refine_ls_weighting_scheme      calc
_refine_ls_weighting_details     
'w=1/[\s^2^(Fo^2^)+(0.0537P)^2^+0.8400P] where P=(Fo^2^+2Fc^2^)/3'
_atom_sites_solution_primary     direct
_atom_sites_solution_secondary   difmap
_atom_sites_solution_hydrogens   geom
_refine_ls_hydrogen_treatment    constr
_refine_ls_extinction_method     none
_refine_ls_extinction_coef       .
_refine_ls_number_reflns         1988
_refine_ls_number_parameters     142
_refine_ls_number_restraints     0
_refine_ls_R_factor_all          0.0395
_refine_ls_R_factor_gt           0.0342
_refine_ls_wR_factor_ref         0.0995
_refine_ls_wR_factor_gt          0.0956
_refine_ls_goodness_of_fit_ref   1.066
_refine_ls_restrained_S_all      1.066
_refine_ls_shift/su_max          0.000
_refine_ls_shift/su_mean         0.000

loop_
_atom_site_label
_atom_site_type_symbol
_atom_site_fract_x
_atom_site_fract_y
_atom_site_fract_z
_atom_site_U_iso_or_equiv
_atom_site_adp_type
_atom_site_occupancy
_atom_site_site_symmetry_order
_atom_site_calc_flag
_atom_site_refinement_flags_posn
_atom_site_refinement_flags_adp
_atom_site_refinement_flags_occupancy
_atom_site_disorder_assembly
_atom_site_disorder_group
Cu1 Cu 0.0000 0.5000 0.5000 0.01800(16) Uani 1 2 d S . P . .
N1 N 0.0148(3) 0.54548(11) 0.2973(3) 0.0154(4) Uani 1 1 d . . . . .
N2 N 0.1222(3) 0.58919(11) 0.1192(3) 0.0163(5) Uani 1 1 d . . . . .
C1 C 0.1705(4) 0.56584(14) 0.2755(3) 0.0172(5) Uani 1 1 d . . . . .
H1 H 0.2993 0.5642 0.3595 0.021 Uiso 1 1 calc R U . . .
C2 C -0.1411(4) 0.55616(14) 0.1465(3) 0.0181(5) Uani 1 1 d . . . . .
H2 H -0.2728 0.5466 0.1238 0.022 Uiso 1 1 calc R U . . .
C3 C -0.0763(4) 0.58258(14) 0.0355(3) 0.0194(6) Uani 1 1 d . . . . .
H3 H -0.1529 0.5942 -0.0776 0.023 Uiso 1 1 calc R U . . .
C4 C 0.2551(4) 0.61605(16) 0.0498(3) 0.0239(6) Uani 1 1 d . . . . .
H4A H 0.1791 0.6389 -0.0604 0.029 Uiso 1 1 calc R U . . .
H4B H 0.3282 0.5724 0.0350 0.029 Uiso 1 1 calc R U . . .
C5 C 0.3968(4) 0.67455(14) 0.1616(3) 0.0178(5) Uani 1 1 d . . . . .
H5A H 0.4894 0.6489 0.2630 0.021 Uiso 1 1 calc R U . . .
H5B H 0.3242 0.7125 0.1952 0.021 Uiso 1 1 calc R U . . .
C6 C 0.5109(4) 0.71596(14) 0.0799(3) 0.0189(6) Uani 1 1 d . . . . .
H6A H 0.5867 0.6789 0.0478 0.023 Uiso 1 1 calc R U . . .
H6B H 0.4202 0.7423 -0.0213 0.023 Uiso 1 1 calc R U . . .
C7 C 0.6467(4) 0.77324(15) 0.2009(3) 0.0209(6) Uani 1 1 d . . . . .
H7A H 0.5682 0.8133 0.2216 0.025 Uiso 1 1 calc R U . . .
H7B H 0.7227 0.7473 0.3075 0.025 Uiso 1 1 calc R U . . .
C8 C 0.9464(4) 0.77728(15) 0.1429(3) 0.0197(6) Uani 1 1 d . . . . .
H8 H 0.9914 0.7268 0.1741 0.024 Uiso 1 1 calc R U . . .
C9 C 1.0323(4) 0.83191(14) 0.0892(3) 0.0192(6) Uani 1 1 d . . . . .
H9 H 1.1489 0.8259 0.0757 0.023 Uiso 1 1 calc R U . . .
C10 C 0.7731(4) 0.88192(14) 0.0905(3) 0.0172(5) Uani 1 1 d . . . . .
H10 H 0.6731 0.9169 0.0788 0.021 Uiso 1 1 calc R U . . .
N3 N 0.7815(3) 0.80929(12) 0.1434(3) 0.0167(5) Uani 1 1 d . . . . .
N4 N 0.9232(3) 0.89734(12) 0.0573(3) 0.0164(5) Uani 1 1 d . . . . .
Cl1 Cl -0.40847(8) 0.46091(3) 0.30979(7) 0.01694(17) Uani 1 1 d . . . . .

loop_
_atom_site_aniso_label
_atom_site_aniso_U_11
_atom_site_aniso_U_22
_atom_site_aniso_U_33
_atom_site_aniso_U_23
_atom_site_aniso_U_13
_atom_site_aniso_U_12
Cu1 0.0296(3) 0.0105(2) 0.0219(3) 0.00229(16) 0.0187(2) 0.00234(16)
N1 0.0205(10) 0.0122(10) 0.0178(10) 0.0013(8) 0.0123(9) 0.0015(8)
N2 0.0208(11) 0.0133(10) 0.0182(10) -0.0017(8) 0.0114(9) -0.0036(8)
C1 0.0194(12) 0.0153(12) 0.0188(12) -0.0001(10) 0.0100(11) -0.0015(10)
C2 0.0174(12) 0.0125(12) 0.0249(13) -0.0012(10) 0.0096(11) 0.0000(9)
C3 0.0217(13) 0.0137(12) 0.0200(12) -0.0008(10) 0.0059(11) -0.0017(10)
C4 0.0304(14) 0.0251(14) 0.0217(13) -0.0050(11) 0.0163(12) -0.0122(12)
C5 0.0203(12) 0.0152(12) 0.0201(12) 0.0001(10) 0.0106(11) -0.0027(10)
C6 0.0198(12) 0.0155(12) 0.0230(13) 0.0004(10) 0.0107(11) -0.0037(10)
C7 0.0239(13) 0.0202(13) 0.0235(13) -0.0015(11) 0.0146(12) -0.0061(11)
C8 0.0211(12) 0.0125(12) 0.0264(13) -0.0010(10) 0.0109(11) -0.0005(10)
C9 0.0187(12) 0.0140(12) 0.0279(14) -0.0031(11) 0.0128(11) -0.0005(10)
C10 0.0190(12) 0.0143(12) 0.0178(12) -0.0017(10) 0.0073(11) -0.0014(10)
N3 0.0193(11) 0.0150(10) 0.0186(10) -0.0014(8) 0.0109(9) -0.0033(8)
N4 0.0197(10) 0.0137(10) 0.0195(10) -0.0023(8) 0.0120(9) -0.0011(8)
Cl1 0.0141(3) 0.0188(3) 0.0206(3) 0.0037(2) 0.0099(3) 0.0008(2)

_geom_special_details            
;
 All esds (except the esd in the dihedral angle between two l.s. planes)
 are estimated using the full covariance matrix.  The cell esds are taken
 into account individually in the estimation of esds in distances, angles
 and torsion angles; correlations between esds in cell parameters are only
 used when they are defined by crystal symmetry.  An approximate (isotropic)
 treatment of cell esds is used for estimating esds involving l.s. planes.
;

loop_
_geom_bond_atom_site_label_1
_geom_bond_atom_site_label_2
_geom_bond_distance
_geom_bond_site_symmetry_2
_geom_bond_publ_flag
Cu1 N1 2.022(2) . yes
Cu1 N1 2.022(2) 3_566 ?
Cu1 N4 2.030(2) 2_645 yes
Cu1 N4 2.030(2) 4_476 ?
Cu1 Cl1 2.9247(6) . yes
N1 C1 1.327(3) . ?
N1 C2 1.379(3) . ?
N2 C1 1.347(3) . ?
N2 C3 1.378(3) . ?
N2 C4 1.468(4) . ?
C1 H1 0.9500 . ?
C2 H2 0.9500 . ?
C2 C3 1.360(4) . ?
C3 H3 0.9500 . ?
C4 H4A 0.9900 . ?
C4 H4B 0.9900 . ?
C4 C5 1.519(4) . ?
C5 H5A 0.9900 . ?
C5 H5B 0.9900 . ?
C5 C6 1.532(4) . ?
C6 H6A 0.9900 . ?
C6 H6B 0.9900 . ?
C6 C7 1.519(4) . ?
C7 H7A 0.9900 . ?
C7 H7B 0.9900 . ?
C7 N3 1.471(3) . ?
C8 H8 0.9500 . ?
C8 C9 1.358(4) . ?
C8 N3 1.376(3) . ?
C9 H9 0.9500 . ?
C9 N4 1.377(3) . ?
C10 H10 0.9500 . ?
C10 N3 1.355(3) . ?
C10 N4 1.323(3) . ?
N4 Cu1 2.030(2) 2_655 ?

loop_
_geom_angle_atom_site_label_1
_geom_angle_atom_site_label_2
_geom_angle_atom_site_label_3
_geom_angle
_geom_angle_site_symmetry_1
_geom_angle_site_symmetry_3
_geom_angle_publ_flag
N1 Cu1 N1 180.0 . 3_566 yes
N1 Cu1 N4 89.84(8) 3_566 4_476 ?
N1 Cu1 N4 89.85(8) . 2_645 yes
N1 Cu1 N4 90.15(8) . 4_476 yes
N1 Cu1 N4 90.16(8) 3_566 2_645 ?
N1 Cu1 Cl1 88.77(6) 3_566 . yes
N1 Cu1 Cl1 91.23(6) . . yes
N4 Cu1 N4 180.0 4_476 2_645 yes
N4 Cu1 Cl1 89.59(6) 2_645 . yes
N4 Cu1 Cl1 90.41(6) 4_476 . yes
C1 N1 Cu1 128.82(18) . . ?
C1 N1 C2 105.9(2) . . ?
C2 N1 Cu1 125.10(18) . . ?
C1 N2 C3 107.0(2) . . ?
C1 N2 C4 126.8(2) . . ?
C3 N2 C4 126.3(2) . . ?
N1 C1 N2 111.3(2) . . ?
N1 C1 H1 124.3 . . ?
N2 C1 H1 124.3 . . ?
N1 C2 H2 125.4 . . ?
C3 C2 N1 109.2(2) . . ?
C3 C2 H2 125.4 . . ?
N2 C3 H3 126.7 . . ?
C2 C3 N2 106.6(2) . . ?
C2 C3 H3 126.7 . . ?
N2 C4 H4A 109.3 . . ?
N2 C4 H4B 109.3 . . ?
N2 C4 C5 111.5(2) . . ?
H4A C4 H4B 108.0 . . ?
C5 C4 H4A 109.3 . . ?
C5 C4 H4B 109.3 . . ?
C4 C5 H5A 108.9 . . ?
C4 C5 H5B 108.9 . . ?
C4 C5 C6 113.5(2) . . ?
H5A C5 H5B 107.7 . . ?
C6 C5 H5A 108.9 . . ?
C6 C5 H5B 108.9 . . ?
C5 C6 H6A 109.8 . . ?
C5 C6 H6B 109.8 . . ?
H6A C6 H6B 108.3 . . ?
C7 C6 C5 109.3(2) . . ?
C7 C6 H6A 109.8 . . ?
C7 C6 H6B 109.8 . . ?
C6 C7 H7A 108.8 . . ?
C6 C7 H7B 108.8 . . ?
H7A C7 H7B 107.7 . . ?
N3 C7 C6 113.8(2) . . ?
N3 C7 H7A 108.8 . . ?
N3 C7 H7B 108.8 . . ?
C9 C8 H8 126.7 . . ?
C9 C8 N3 106.6(2) . . ?
N3 C8 H8 126.7 . . ?
C8 C9 H9 125.4 . . ?
C8 C9 N4 109.1(2) . . ?
N4 C9 H9 125.4 . . ?
N3 C10 H10 124.7 . . ?
N4 C10 H10 124.7 . . ?
N4 C10 N3 110.6(2) . . ?
C8 N3 C7 126.5(2) . . ?
C10 N3 C7 126.2(2) . . ?
C10 N3 C8 107.2(2) . . ?
C9 N4 Cu1 125.74(17) . 2_655 ?
C10 N4 Cu1 127.32(18) . 2_655 ?
C10 N4 C9 106.5(2) . . ?

_refine_diff_density_max         0.532
_refine_diff_density_min         -0.602
_refine_diff_density_rms         0.074

_shelx_res_file                  
;
 
    bmo285cu.res created by SHELXL-2014/7
 
 
TITL bmo285cu in P2(1)/c; 130K; Xcalibur
CELL  0.71073   7.6061  17.6047   8.9119   90.000  114.965   90.000
ZERR    2.000   0.0005   0.0006   0.0005    0.000    0.007    0.000
LATT  1
SYMM -X, 1/2+Y, 1/2-Z
SFAC C  H  N  Cl CU
UNIT 40 56 16 4  2
 
TEMP -143
LIST 4
 
L.S. 6
BOND $H
FMAP 2
PLAN 5
 
ACTA 51
SIZE 0.39 0.16 0.07
 
BIND CU1 CL1
 
WGHT    0.053700    0.840000
FVAR       5.45800
CU1   5    0.000000    0.500000    0.500000    10.50000    0.02962    0.01046 =
         0.02192    0.00229    0.01866    0.00234
N1    3    0.014828    0.545482    0.297274    11.00000    0.02048    0.01222 =
         0.01777    0.00130    0.01232    0.00152
N2    3    0.122219    0.589186    0.119167    11.00000    0.02075    0.01330 =
         0.01823   -0.00166    0.01138   -0.00362
C1    1    0.170451    0.565837    0.275537    11.00000    0.01943    0.01533 =
         0.01882   -0.00010    0.00996   -0.00153
AFIX  43
H1    2    0.299335    0.564157    0.359485    11.00000   -1.20000
AFIX   0
C2    1   -0.141075    0.556158    0.146524    11.00000    0.01740    0.01251 =
         0.02489   -0.00123    0.00955    0.00001
AFIX  43
H2    2   -0.272830    0.546575    0.123813    11.00000   -1.20000
AFIX   0
C3    1   -0.076282    0.582578    0.035545    11.00000    0.02167    0.01374 =
         0.01997   -0.00077    0.00594   -0.00173
AFIX  43
H3    2   -0.152939    0.594215   -0.077608    11.00000   -1.20000
AFIX   0
C4    1    0.255109    0.616055    0.049794    11.00000    0.03041    0.02508 =
         0.02168   -0.00500    0.01631   -0.01219
AFIX  23
H4A   2    0.179147    0.638856   -0.060378    11.00000   -1.20000
H4B   2    0.328222    0.572362    0.035014    11.00000   -1.20000
AFIX   0
C5    1    0.396811    0.674548    0.161555    11.00000    0.02029    0.01517 =
         0.02014    0.00008    0.01056   -0.00271
AFIX  23
H5A   2    0.489422    0.648860    0.262965    11.00000   -1.20000
H5B   2    0.324205    0.712452    0.195217    11.00000   -1.20000
AFIX   0
C6    1    0.510919    0.715957    0.079935    11.00000    0.01985    0.01552 =
         0.02303    0.00041    0.01067   -0.00370
AFIX  23
H6A   2    0.586704    0.678854    0.047820    11.00000   -1.20000
H6B   2    0.420176    0.742340   -0.021270    11.00000   -1.20000
AFIX   0
C7    1    0.646688    0.773241    0.200929    11.00000    0.02386    0.02017 =
         0.02349   -0.00154    0.01463   -0.00607
AFIX  23
H7A   2    0.568178    0.813271    0.221609    11.00000   -1.20000
H7B   2    0.722734    0.747344    0.307452    11.00000   -1.20000
AFIX   0
C8    1    0.946424    0.777279    0.142928    11.00000    0.02111    0.01251 =
         0.02644   -0.00098    0.01086   -0.00054
AFIX  43
H8    2    0.991381    0.726839    0.174130    11.00000   -1.20000
AFIX   0
C9    1    1.032295    0.831905    0.089165    11.00000    0.01873    0.01399 =
         0.02789   -0.00308    0.01282   -0.00051
AFIX  43
H9    2    1.148946    0.825937    0.075706    11.00000   -1.20000
AFIX   0
C10   1    0.773059    0.881917    0.090481    11.00000    0.01904    0.01425 =
         0.01779   -0.00169    0.00733   -0.00141
AFIX  43
H10   2    0.673094    0.916942    0.078844    11.00000   -1.20000
AFIX   0
N3    3    0.781541    0.809294    0.143360    11.00000    0.01933    0.01499 =
         0.01859   -0.00142    0.01088   -0.00332
N4    3    0.923175    0.897339    0.057282    11.00000    0.01975    0.01371 =
         0.01952   -0.00235    0.01197   -0.00111
CL1   4   -0.408471    0.460913    0.309793    11.00000    0.01410    0.01879 =
         0.02060    0.00370    0.00994    0.00076
HKLF 4
 
REM  bmo285cu in P2(1)/c; 130K; Xcalibur
REM R1 =  0.0342 for    1749 Fo > 4sig(Fo)  and  0.0395 for all    1988 data
REM    142 parameters refined using      0 restraints
 
END
 
WGHT      0.0537      0.8400
 
REM Highest difference peak  0.532,  deepest hole -0.602,  1-sigma level  0.074
Q1    1  -0.2672  0.5073  0.3369  11.00000  0.05    0.27
Q2    1   0.3232  0.6450  0.1107  11.00000  0.05    0.26
Q3    1   0.8991  0.9351 -0.0039  11.00000  0.05    0.26
Q4    1   0.0226  0.5471  0.4129  11.00000  0.05    0.25
Q5    1   0.0248  0.5427  0.5888  11.00000  0.05    0.24
;
_shelx_res_checksum              48670

_shelx_hkl_file                  
;
   0   0  -2 3559.63 170.802   2
   0   0   2 3496.22 167.638   2
   0   0  -3 587.730 104.089   2
   0   0   3-0.11332 82.7348   2
   0   0   4 156.714 96.9724   2
   0   0   5 54.2114 88.5897   1
   0   0   5-90.5418 106.616   2
   0   0   6 42932.5 1048.73   2
   0   0   6 43102.7 1040.19   1
   0   0   7 236.608 132.776   1
   0   0   8 3044.36 310.989   1
   0   0   9-130.635 156.482   1
   0  -1   2 639072. 6941.63   1
   0   1   2 623811. 6930.83   2
   0   1  -2 618936. 6924.82   2
   0   1   3 6385.30 276.605   2
   0   1  -3 6088.20 271.308   2
   0  -1   3 5463.79 258.807   2
   0  -1   3 6052.82 269.003   1
   0   1  -4 2558.32 209.690   2
   0  -1   4 2825.38 214.912   1
   0  -1   4 2583.16 211.212   2
   0   1   4 2627.77 205.416   2
   0   1   5 158683. 2365.54   2
   0   1  -5 162108. 2451.35   2
   0  -1   5 171284. 2443.79   1
   0   1   6-79.0977 115.034   2
   0  -1   6-60.0563 106.411   1
   0   1   7 3424.44 310.870   1
   0   1   7 3213.81 302.494   2
   0  -1   7 3150.47 298.327   1
   0   1   8 573.183 172.189   1
   0  -1   8 976.851 199.402   1
   0  -1   9 9005.01 552.728   1
   0  -2   1 147.436 58.9828   1
   0   2  -1 145.008 70.9345   1
   0   2  -2 6147.03 254.223   2
   0  -2   2 6954.94 271.494   1
   0  -2   3 5966.51 285.300   1
   0   2  -3 4987.85 267.664   2
   0  -2   4 116052. 1779.59   1
   0   2   4 109668. 1708.44   2
   0   2  -4 110761. 1744.59   2
   0  -2   5-10.6825 88.0261   1
   0   2   5-57.5515 95.3958   2
   0   2  -5 45.1035 92.7187   2
   0   2  -6 43169.3 1090.26   2
   0   2   6 42341.0 1036.79   2
   0  -2   6 44374.0 1095.64   1
   0  -2   7 73.7637 112.631   1
   0   2   7-53.2214 124.561   2
   0   2   7 94.0120 103.738   1
   0   2   8 183.601 131.759   2
   0   2   8 274.307 141.925   1
   0  -2   8 313.557 135.918   1
   0  -2   9 8628.13 572.194   1
   0   3   0-46.3404 69.1486   1
   0  -3   0-37.5713 53.1652   1
   0   3   1 81508.3 1107.91   1
   0  -3   1 76097.2 1161.80   1
   0   3  -1 75727.1 1154.42   1
   0  -3   2 48287.9 890.466   1
   0   3  -2 47023.9 893.690   1
   0   3  -3 14269.0 472.368   2
   0  -3   3 14829.4 486.015   1
   0  -3   4 33964.7 840.167   1
   0   3  -4 31373.6 798.314   2
   0   3   5 160305. 2422.93   2
   0  -3   5 168730. 2529.31   1
   0   3  -5 164882. 2489.03   2
   0   3   6 2568.08 253.682   2
   0  -3   6 2808.58 275.756   1
   0   3  -6 2657.23 270.682   2
   0   3   7 1502.00 226.675   2
   0  -3   7 2022.45 259.009   1
   0   3  -7 1793.49 255.072   2
   0   3   8 3888.13 355.408   2
   0   3   8 2501.74 273.425   1
   0  -3   8 3196.85 332.911   1
   0  -3   9 2584.85 325.360   1
   0   3   9 3073.88 345.781   2
   0  -4   0 65835.8 1029.98   1
   0   4   0 65711.9 1045.51   1
   0   4  -1 47880.5 908.079   1
   0  -4  -1 49437.1 838.077   1
   0   4   1 49501.8 828.475   1
   0  -4   1 47547.7 896.215   1
   0  -4   2 35798.2 804.386   1
   0   4  -2 33210.8 765.888   1
   0   4  -3 10204.2 428.344   1
   0  -4   3 9552.37 414.548   1
   0   4  -4 51456.0 1111.03   2
   0  -4   4 52204.2 1137.73   1
   0   4  -5 1143.94 175.012   2
   0   4   5 1148.26 180.664   2
   0  -4   5 1140.36 188.553   1
   0   4  -6 90639.0 1780.30   2
   0  -4   6 95174.7 1835.61   1
   0   4   6 87539.4 1693.01   2
   0   4  -7 10857.5 597.632   2
   0   4   7 11117.1 547.905   2
   0  -4   7 11305.0 596.645   1
   0  -4   8 3713.62 400.915   1
   0   4   8 3198.48 326.435   2
   0  -4   9 13536.2 730.765   1
   0   4   9 14130.7 682.395   2
   0  -5   0 31.9671 80.8994   1
   0   5   0 35.4996 87.8209   1
   0   5   1 190708. 2492.22   1
   0  -5   1 194502. 2596.41   1
   0  -5  -1 196120. 2535.14   1
   0   5  -1 198633. 2650.34   1
   0   5  -2 19329.0 595.979   1
   0  -5   2 19043.3 589.599   1
   0   5   2 20078.2 529.639   1
   0   5  -3 1381.92 190.655   1
   0  -5   3 1447.33 193.225   1
   0   5  -4 28260.6 818.158   2
   0  -5   4 29752.3 870.166   1
   0   5  -5 53940.4 1247.16   2
   0  -5   5 55304.9 1300.39   1
   0   5  -6 1328.33 219.753   2
   0   5   6 1380.55 211.524   2
   0  -5   6 1627.23 242.695   1
   0   5   7 35568.6 1050.03   2
   0   5  -7 38479.9 1166.70   2
   0  -5   8 2530.47 322.195   1
   0   5   8 2777.06 313.538   2
   0  -5   9 8145.42 583.327   1
   0   6   0 6453.47 320.051   1
   0  -6   0 6880.93 329.349   1
   0  -6   1 14906.4 512.094   1
   0   6   1 14904.1 461.491   1
   0  -6  -1 16026.6 513.480   1
   0   6  -1 15003.4 537.007   1
   0  -6   2 24633.9 722.269   1
   0   6  -2 24120.8 707.713   1
   0   6   2 25186.2 638.445   1
   0   6  -3 18374.3 653.257   1
   0  -6   3 18436.9 651.328   1
   0   6   3 18472.5 548.515   1
   0  -6   4 19375.3 712.981   1
   0   6  -5 14978.3 632.358   2
   0  -6   5 17112.2 711.669   1
   0   6  -6 35641.2 1075.93   2
   0  -6   6 35971.1 1117.78   1
   0   6   6 35266.0 1045.15   2
   0   6  -7 17479.5 771.304   2
   0  -6   7 17732.5 799.876   1
   0   6   7 15652.7 695.745   2
   0  -6   8 8713.53 593.765   1
   0   6   8 8289.30 524.095   2
   0  -6   9 157.916 188.315   1
   0   7   0 49.8487 87.9234   1
   0  -7   0-17.3926 93.6438   1
   0   7  -1 116495. 1911.04   1
   0  -7   1 118149. 1904.52   1
   0  -7  -1 117416. 1862.29   1
   0   7   1 114827. 1811.65   1
   0   7  -2 11058.7 493.376   1
   0  -7   2 10720.0 485.432   1
   0   7   2 10837.0 425.605   1
   0   7   3 123722. 1910.43   1
   0  -7   3 121093. 2110.12   1
   0   7  -3 122134. 2136.54   1
   0   7  -4 74788.7 1614.16   1
   0   7   4 79627.3 1421.64   1
   0  -7   4 79177.1 1640.30   1
   0  -7   5 176.138 146.467   1
   0   7  -5 234.940 145.968   2
   0   7  -6 336.294 163.220   2
   0  -7   6 666.482 189.258   1
   0   7   7 18382.3 777.470   2
   0   7  -7 18807.6 829.171   2
   0  -7   7 18996.5 858.801   1
   0  -7   8 2239.97 328.165   1
   0   7   8 2588.14 319.927   2
   0  -7   9 4841.44 498.550   1
   0   8   0 14393.4 552.086   1
   0  -8   0 14037.5 547.759   1
   0  -8  -1 7259.71 384.017   1
   0   8   1 6908.88 362.015   1
   0   8  -1 7289.49 407.021   1
   0  -8   1 6907.00 401.206   1
   0   8   2 193191. 2726.33   1
   0  -8   2 192978. 2929.85   1
   0   8  -2 194647. 2949.27   1
   0   8   3 2561.68 228.701   1
   0  -8   3 2373.82 260.750   1
   0   8  -3 2864.18 292.822   1
   0   8  -4 56153.6 1426.55   1
   0   8   4 55635.1 1178.03   1
   0  -8   4 56082.3 1391.11   1
   0   8  -5 1307.08 219.783   2
   0  -8   5 908.679 222.487   1
   0   8   5 1124.96 180.917   1
   0  -8   6 780.674 198.704   1
   0   8   6 786.998 167.735   1
   0   8  -6 1017.11 208.428   2
   0   8   7 1116.97 233.291   2
   0   8   7 852.214 175.371   1
   0  -8   7 777.705 223.876   1
   0   8   8 6548.26 497.860   2
   0  -8   8 6273.26 545.878   1
   0  -8   9 3942.32 456.982   1
   0   9   0 55.4944 102.248   1
   0  -9   0-46.3815 115.018   1
   0  -9   1 35093.1 974.984   1
   0  -9  -1 35471.1 944.944   1
   0   9  -1 34652.6 987.536   1
   0   9   1 32594.3 884.946   1
   0  -9   2 8402.29 481.473   1
   0   9   2 8305.94 413.995   1
   0   9  -2 8042.24 480.521   1
   0  -9   3 48399.2 1271.66   1
   0   9   3 49073.4 1109.55   1
   0   9  -3 48674.2 1284.47   1
   0   9   4 23126.9 732.008   1
   0   9  -4 23678.3 922.811   1
   0  -9   4 23221.4 882.123   1
   0   9   5 3832.23 309.210   1
   0  -9   5 4058.84 393.728   1
   0   9   6 8295.07 473.032   1
   0  -9   6 8860.84 600.799   1
   0  -9   7 58379.6 1669.52   1
   0  -9   8 2721.23 386.868   1
   0   9   8 2506.03 342.013   2
   0  -9   9 714.934 246.266   1
   0 -10   0 22665.5 800.899   1
   0  10   0 22754.6 795.810   1
   0 -10   1 57760.9 1382.77   1
   0 -10  -1 63181.5 1420.37   1
   0  10  -1 66404.0 1508.23   1
   0  10   1 61701.9 1357.98   1
   0  10   2 235394. 3378.46   1
   0 -10   2 235886. 3567.79   1
   0  10  -2 236295. 3575.21   1
   0  10  -3 3994.66 375.348   1
   0 -10   3 4135.13 384.643   1
   0  10   3 4283.96 321.911   1
   0  10  -4 6443.92 496.068   1
   0 -10   4 5888.16 454.043   1
   0  10   4 6121.42 385.693   1
   0 -10   5 6794.24 524.279   1
   0  10   5 6004.79 402.790   1
   0  10   6 600.086 171.065   1
   0 -10   6 1050.64 250.895   1
   0 -10   7 8111.62 619.163   1
   0 -10   8 21684.8 1061.13   1
   0  10   8 21846.4 969.494   2
   0 -10   9 197.495 185.024   1
   0 -11   0 87.3856 112.761   1
   0  11   0 72.0327 99.3442   1
   0  11   1 14441.6 630.086   1
   0 -11   1 13860.9 646.809   1
   0  11  -1 15832.2 744.360   1
   0 -11  -1 13925.7 657.197   1
   0  11  -2 19506.8 808.969   1
   0  11   2 18641.3 708.433   1
   0 -11   2 19515.8 801.333   1
   0 -11   3 154657. 2781.51   1
   0  11  -3 151290. 2782.03   1
   0  11   3 152887. 2522.16   1
   0  11   4 128.385 132.431   1
   0 -11   4 44.6518 134.536   1
   0 -11   5 4627.90 441.504   1
   0  11   5 4122.07 349.955   1
   0 -11   6 8116.89 604.651   1
   0  11   6 7271.29 469.536   1
   0 -11   7 22634.6 1061.34   1
   0  11   8 759.219 251.616   2
   0 -11   8 1046.36 303.410   1
   0 -11   9 1786.11 366.624   1
   0  12   0-43.7946 124.374   1
   0 -12   0 208.013 142.792   1
   0 -12  -1 12493.9 652.636   1
   0  12  -1 12784.6 698.953   1
   0 -12   1 11346.9 631.651   1
   0  12   1 12231.3 600.659   1
   0  12   2 115801. 2154.77   1
   0 -12   2 116348. 2301.14   1
   0  12  -2 114954. 2333.28   1
   0  12   3 1554.10 234.402   1
   0 -12   3 1346.04 268.206   1
   0  12   4 17766.4 725.766   1
   0 -12   4 19311.8 892.477   1
   0  12   5 890.321 183.941   1
   0 -12   5 999.871 253.268   1
   0  12   6 2574.92 297.938   1
   0 -12   6 2930.89 394.392   1
   0 -12   7-55.6816 185.991   1
   0 -12   8 38253.8 1500.35   1
   0 -12   9 171.127 200.064   1
   0 -13   0 179.405 145.267   1
   0  13   0-10.0659 131.484   1
   0 -13  -1 1355.50 255.182   1
   0  13   1 1441.73 246.290   1
   0 -13   1 1408.84 261.792   1
   0  13   2 4051.43 355.334   1
   0 -13   2 3456.65 363.640   1
   0 -13   3 75018.8 1904.63   1
   0  13   3 72388.5 1658.87   1
   0 -13   4 925.035 248.406   1
   0  13   4 897.737 201.168   1
   0 -13   5 2572.53 369.649   1
   0  13   5 2599.07 312.658   1
   0 -13   6 1782.03 336.692   1
   0 -13   7 17422.0 988.923   1
   0 -13   8-76.7889 187.751   1
   0 -14   0 1219.97 264.826   1
   0 -14   1 343.644 193.359   1
   0 -14  -1 304.099 168.381   1
   0  14   2 44787.9 1305.91   1
   0 -14   2 44470.0 1421.09   1
   0  14   3 1125.19 203.369   1
   0 -14   3 695.839 202.429   1
   0 -14   4 24256.7 1079.77   1
   0  14   4 24392.2 925.165   1
   0  14   5 1099.01 232.674   1
   0 -14   5 1431.50 327.214   1
   0 -14   6 1568.44 322.569   1
   0 -14   7 633.764 276.950   1
   0 -14   8 32116.4 1451.84   1
   0 -15   0 2.34487 149.208   1
   0 -15  -1 3542.32 407.685   1
   0 -15   1 3292.02 389.655   1
   0 -15   2 1389.92 273.595   1
   0 -15   3 40038.4 1403.13   1
   0 -15   4 1547.39 308.223   1
   0 -15   5 721.997 222.834   1
   0 -15   6 119.713 197.659   1
   0 -15   7 24906.3 1262.51   1
   0 -16   0 603.206 218.058   1
   0 -16  -1 7040.22 575.134   1
   0 -16   1 7566.32 612.591   1
   0 -16   2 21803.7 1052.96   1
   0 -16   3 1572.87 309.349   1
   0 -16   4 15399.8 915.415   1
   0 -16   5 2687.28 404.817   1
   0 -16   6 5610.59 589.371   1
   0 -17   0-40.3080 166.589   1
   0 -17  -1 26677.7 1159.25   1
   0 -17   1 26188.3 1176.41   1
   0 -17   2 18151.1 986.481   1
   0 -17   3 27744.0 1247.55   1
   0 -17   4 1547.77 322.066   1
   0 -17   5 99.4914 197.372   1
   0 -17   6 3491.11 496.482   1
   0 -18   0 55142.5 1806.14   1
   0 -18   1 3819.20 488.466   1
   0 -18   2 14247.5 913.554   1
   0 -18   3 3955.61 486.364   1
   0 -18   4 5569.22 600.442   1
   0 -18   5-98.4295 211.226   1
   0 -19   0 281.030 241.150   1
   0 -19   1 18040.7 1046.72   1
   0 -19   2 207.636 223.803   1
   0 -19   3 22528.8 1195.16   1
   0 -19   4 7622.58 726.480   1
   0 -20   0 5045.84 571.655   1
   0 -20   1 8749.17 758.005   1
   0 -20   2 7396.00 712.535   1
   0 -20   3 6061.97 675.843   1
   0 -21   0 406.910 275.719   1
   0 -21   1 16023.3 1081.34   1
  -1   0  10 1076.38 240.538   1
  -1   0   9 290.372 182.091   1
  -1   0   8 56942.3 1430.43   1
  -1   0  -1 118.616 83.8370   2
   1   0   1 128.254 113.496   2
  -1   0  -2 336615. 4058.69   2
   1   0   2 326850. 4033.72   2
   1   0   2 330203. 3699.24   1
   1   0   3-40.7974 105.648   2
   1   0   3 78.5952 61.5743   1
   1   0   4 24565.5 561.490   1
   1   0   4 21990.8 714.642   2
   1   0   5-132.402 135.719   2
   1   0   5 86.4780 72.7372   1
   1   0   6 112.966 84.0615   1
   1   0   6-118.491 133.697   2
   1   0   7 42.0355 93.9840   1
   1   0   7-154.364 155.979   2
   1   0   8 25939.0 794.930   1
  -1  -1  10 1327.66 270.844   1
  -1  -1   9 5449.73 465.674   1
  -1   1   9 5306.74 452.038   1
  -1  -1   8 4149.82 391.634   1
  -1  -1   7 36334.9 1072.35   1
  -1   1   6 7138.37 323.042   2
  -1   1   5 121.989 69.9717   2
   1   1  -5 315.852 78.3546   2
   1   1  -4 6193.37 237.217   2
  -1   1   4 6106.98 220.937   2
   1   1  -3 54921.7 794.728   2
  -1   1   3 56019.4 752.671   2
  -1   1  -1 86822.3 1292.96   2
   1  -1   1 85162.5 1126.25   1
   1  -1   1 85774.7 1286.31   2
  -1   1  -1 86865.7 1127.33   1
   1  -1   2 4401.70 271.269   2
   1  -1   2 4950.17 201.664   1
   1   1   2 5068.66 285.655   2
  -1   1  -2 5475.05 210.181   1
  -1   1  -2 4798.47 272.826   2
  -1   1  -3 218121. 2967.49   2
   1   1   3 209611. 2926.58   2
   1  -1   3 219456. 2677.31   1
   1  -1   3 215267. 2926.48   2
   1   1   3 212887. 2527.53   1
  -1   1  -4 36638.8 959.562   2
   1  -1   4 33114.9 919.208   2
   1   1   4 36619.9 693.113   1
   1   1   4 34076.6 911.897   2
   1  -1   5 18009.0 694.203   2
   1  -1   5 21973.5 651.197   1
   1   1   5 17761.9 494.180   1
   1   1   5 19859.0 712.593   2
   1   1   6 6264.00 432.797   2
   1  -1   6 6563.10 360.113   1
   1   1   6 6083.22 308.094   1
   1  -1   6 5991.65 447.369   2
   1   1   7 138.121 157.376   2
   1  -1   7 273.035 128.420   1
   1   1   7 130.061 113.429   1
   1   1   8 411.544 209.690   2
   1  -1   8 646.105 163.516   1
  -1  -2  10 1064.80 251.806   1
  -1  -2   9 441.221 190.080   1
  -1   2   9 729.547 213.435   1
  -1  -2   8 21971.3 894.647   1
  -1  -2   7 858.609 205.938   1
  -1   2   7 759.003 142.425   2
   1   2  -6 10686.1 432.993   2
  -1   2   6 10573.8 392.778   2
  -1  -2   6 11218.4 542.202   1
  -1   2   5 6567.54 274.130   2
   1   2  -5 6434.41 297.104   2
  -1   2   4 26989.2 540.118   2
   1   2  -4 27733.2 583.147   2
  -1  -2   0 180206. 2086.02   1
  -1   2   0 176358. 2214.14   1
  -1   2  -1 131032. 1699.69   1
  -1   2  -1 130301. 1812.67   2
   1  -2   1 132221. 1709.22   1
   1  -2   2 44447.3 947.251   2
  -1   2  -2 48796.9 833.418   1
  -1   2  -2 47183.9 948.963   2
   1  -2   2 47789.8 830.271   1
   1  -2   3 31219.7 819.668   2
   1   2   3 31710.9 812.195   2
  -1   2  -3 32246.8 824.730   2
   1  -2   3 32404.0 700.049   1
  -1   2  -4 112712. 1944.70   2
   1   2   4 108730. 1888.11   2
   1  -2   4 115281. 1936.31   2
   1   2   4 107492. 1487.60   1
   1  -2   4 114213. 1724.25   1
   1   2   5 24359.0 568.635   1
  -1   2  -5 25343.3 856.565   2
   1   2   5 23626.3 798.791   2
   1  -2   5 25905.5 715.039   1
   1  -2   6 906.018 160.570   1
   1   2   6 832.960 126.236   1
   1   2   6 1285.52 226.127   2
   1  -2   7 3037.21 281.743   1
   1   2   7 3088.54 347.871   2
   1   2   7 2553.26 210.319   1
   1   2   8 13955.4 729.883   2
   1  -2   8 12716.5 597.436   1
  -1  -3  10 133.498 176.857   1
  -1  -3   9 20034.8 902.233   1
  -1   3   8 3558.57 288.763   2
  -1  -3   8 3508.03 366.217   1
   1   3  -7 50165.2 1156.08   2
  -1  -3   7 52516.2 1379.81   1
  -1   3   7 51043.6 1067.27   2
  -1  -3   6 13057.2 613.858   1
   1   3  -6 12922.2 494.436   2
  -1   3   6 12370.9 440.519   2
  -1  -3   5 10461.2 507.467   1
  -1   3   5 9113.79 344.222   2
   1   3  -5 10003.0 395.013   2
   1   3  -4 82601.6 1324.22   2
  -1  -3   4 87601.5 1554.86   1
  -1  -3   3 267494. 3469.18   1
  -1  -3   2 97329.4 1495.57   1
  -1  -3   1 100995. 1443.53   1
   1  -3   0 88483.0 1302.58   1
  -1   3   0 88215.6 1297.09   1
  -1  -3   0 87542.6 1183.37   1
   1   3   0 88039.0 1186.34   1
  -1   3  -1 144197. 1939.07   1
  -1  -3  -1 143925. 1711.26   1
   1   3   1 146682. 1710.13   1
   1  -3   1 148608. 1954.51   1
   1  -3   2 35334.5 704.520   1
  -1   3  -2 36394.3 710.000   1
  -1   3  -2 36541.8 795.918   2
   1  -3   3 87039.5 1431.05   1
  -1   3  -3 86997.3 1565.68   2
  -1   3  -3 89366.7 1454.15   1
   1  -3   4 84767.1 1464.01   1
  -1   3  -4 81862.3 1601.12   2
   1   3   4 80814.5 1576.24   2
   1   3   5 59418.6 1348.18   2
  -1   3  -5 62295.6 1421.02   2
   1  -3   5 61008.0 1238.18   1
  -1   3  -6 174.746 181.400   2
   1   3   6 8.42577 131.855   2
   1  -3   6 152.681 113.813   1
   1   3   6-10.4195 65.8913   1
   1   3   7 1896.40 172.684   1
   1   3   7 2389.75 312.700   2
   1  -3   7 2600.41 285.193   1
   1  -3   8 49.8340 141.264   1
   1   3   8-267.057 200.980   2
   1   3   9 16125.5 828.359   2
  -1  -4  10-82.9577 183.414   1
  -1  -4   9 5713.94 493.898   1
  -1  -4   8 30404.1 1097.71   1
  -1   4   8 29029.3 825.623   2
   1   4  -8 29586.2 927.002   2
  -1  -4   7 8260.23 525.252   1
   1   4  -7 8768.85 463.208   2
  -1   4   7 9305.07 420.001   2
  -1  -4   6 59655.3 1421.94   1
  -1   4   6 57924.5 1128.27   2
   1   4  -6 57348.8 1192.72   2
   1   4  -5 9048.28 397.443   2
  -1  -4   5 9288.02 493.756   1
  -1  -4   4 46052.7 1089.21   1
  -1  -4   3 89323.7 1558.34   1
  -1  -4   2 20421.7 585.384   1
   1   4  -1 591556. 6794.58   1
  -1  -4   1 601743. 6756.44   1
  -1   4   1 593447. 6806.91   1
   1   4   0 6615.80 249.486   1
  -1   4   0 6852.07 299.317   1
   1  -4   0 6953.30 312.129   1
  -1  -4   0 6746.55 256.023   1
   1   4   1 186281. 2238.23   1
  -1  -4  -1 186526. 2243.48   1
   1  -4   1 188679. 2487.68   1
  -1   4  -1 186537. 2475.21   1
   1  -4   2 23529.8 621.585   1
  -1   4  -2 23638.0 681.679   2
   1   4   2 22208.6 419.254   1
  -1   4  -2 23940.8 633.168   1
  -1   4  -3 110580. 1723.81   1
   1  -4   3 109394. 1711.60   1
  -1   4  -3 107966. 1813.68   2
  -1   4  -4 30932.7 910.032   2
   1  -4   4 30673.2 825.819   1
  -1   4  -5 52650.5 1315.74   2
   1  -4   5 51999.5 1191.17   1
   1   4   5 48958.9 1251.57   2
   1   4   6 16344.5 711.511   2
  -1   4  -6 17018.0 770.688   2
   1  -4   6 17749.8 681.992   1
   1   4   7 1738.31 275.363   2
   1  -4   7 1870.51 244.380   1
   1   4   7 1284.95 140.973   1
   1   4   8 31790.8 1134.13   2
   1  -4   8 33057.8 1064.42   1
   1   4   9 859.537 264.137   2
  -1  -5  10 161.943 216.393   1
  -1  -5   9 3091.93 379.259   1
   1   5  -8 26828.4 905.553   2
  -1   5   8 27311.4 820.880   2
  -1  -5   8 28208.0 1071.83   1
   1   5  -7 32836.1 947.456   2
  -1   5   7 31813.0 856.992   2
  -1  -5   7 32996.5 1106.76   1
   1   5  -6 32447.8 887.228   2
  -1   5   6 30477.0 801.764   2
  -1  -5   6 33896.5 1058.69   1
  -1  -5   5 34460.4 999.079   1
   1   5  -5 33394.0 862.152   2
  -1  -5   4 17059.1 640.336   1
  -1  -5   3 113644. 1891.85   1
  -1  -5   2 838.890 155.260   1
   1   5  -2 612.119 144.623   1
  -1   5   1 252608. 3249.65   1
   1   5  -1 248158. 3213.16   1
  -1  -5   1 255302. 3218.01   1
   1   5   0 4100.35 217.748   1
   1  -5   0 4240.56 267.614   1
  -1  -5   0 4574.73 234.757   1
  -1   5   0 3871.21 248.600   1
  -1  -5  -1 153045. 1964.76   1
  -1   5  -1 147820. 2172.05   1
   1  -5   1 148959. 2183.89   1
   1   5   1 153399. 1959.98   1
   1   5   2 66448.3 999.554   1
   1  -5   2 66777.8 1273.51   1
  -1   5  -2 73592.7 1350.40   1
  -1   5  -3 2803.94 267.812   2
   1  -5   3 3047.54 250.479   1
  -1   5  -3 3191.21 257.920   1
   1   5   3 3034.63 159.744   1
   1  -5   4 32833.0 901.269   1
   1   5   4 31626.7 631.607   1
  -1   5  -4 33206.5 972.753   2
  -1   5  -4 31589.6 875.608   1
   1   5   5 3669.45 333.882   2
  -1   5  -5 4183.25 359.052   2
   1  -5   5 4344.93 337.148   1
   1  -5   6 27388.9 910.069   1
   1   5   6 27313.8 960.612   2
  -1   5  -6 27647.5 1018.74   2
   1  -5   7 35895.0 1074.04   1
   1   5   7 32975.4 1085.72   2
   1  -5   8 7812.09 527.572   1
   1   5   8 8143.56 569.174   2
   1   5   9 15451.5 821.327   2
  -1  -6  10 12136.1 805.103   1
  -1  -6   9 13652.8 800.435   1
  -1   6   8 10087.5 502.954   2
  -1  -6   8 9542.35 636.296   1
   1   6  -8 9674.25 555.262   2
  -1  -6   7 1512.39 266.509   1
  -1   6   7 1515.11 204.898   2
   1   6  -7 1559.60 226.761   2
   1   6  -6 29235.1 880.574   2
  -1  -6   6 31244.4 1039.91   1
  -1  -6   5 2479.77 275.461   1
  -1  -6   4 34171.5 975.301   1
  -1  -6   3 62042.5 1309.45   1
   1   6  -2 107389. 1849.83   1
  -1   6   2 113115. 1783.39   1
  -1  -6   2 109468. 1824.91   1
   1   6  -1 270588. 3512.38   1
  -1   6   1 274583. 3557.62   1
  -1  -6   1 270823. 3525.35   1
   1  -6   0 481.606 124.381   1
  -1  -6   0 350.666 97.4443   1
  -1   6   0 417.479 120.926   1
   1   6   0 425.886 100.053   1
   1   6   1 11533.6 378.384   1
  -1  -6  -1 11997.7 392.695   1
  -1   6  -1 11197.6 462.737   1
   1  -6   1 11613.9 474.956   1
   1   6   2 34929.6 688.712   1
   1  -6   2 33756.3 889.987   1
  -1   6  -2 39008.2 993.911   1
   1   6   3 22508.7 512.201   1
  -1   6  -3 23416.2 759.966   1
   1  -6   3 22955.5 733.376   1
  -1   6  -3 23844.4 790.716   2
   1   6   4 43905.3 815.553   1
  -1   6  -4 44767.4 1200.06   2
  -1   6  -4 48225.3 1193.79   1
   1  -6   4 45594.3 1133.02   1
   1  -6   5 557.648 162.781   1
   1   6   5 247.879 78.9821   1
  -1   6  -5 354.152 160.968   2
   1  -6   6-13.2442 124.367   1
  -1   6  -6 223.536 203.875   2
   1   6   6 162.866 156.483   2
   1   6   6 8.23545 61.4910   1
   1  -6   7 38684.7 1158.53   1
   1   6   7 38588.9 1200.59   2
   1   6   8 5626.28 489.444   2
   1  -6   8 5918.64 483.287   1
  -1  -7  10 2030.86 354.891   1
  -1  -7   9 9519.19 711.363   1
   1   7  -8 8760.01 542.245   2
  -1   7   8 8797.52 486.770   2
  -1  -7   8 9346.25 646.397   1
  -1  -7   7 13871.5 742.345   1
   1   7  -7 13774.4 648.259   2
  -1   7   7 12603.5 573.660   2
   1   7  -6 25033.9 854.694   2
  -1  -7   6 26166.4 973.210   1
  -1  -7   5 28520.4 965.178   1
  -1  -7   4 17043.7 699.091   1
   1   7  -3 24479.1 807.051   1
  -1  -7   3 25554.0 825.235   1
   1   7  -2 20872.7 707.067   1
  -1  -7   2 21479.9 713.262   1
  -1   7   2 22351.9 689.343   1
  -1  -7   1 160190. 2374.60   1
   1   7  -1 152418. 2358.10   1
  -1   7   1 162503. 2390.53   1
   1  -7   0 25822.3 769.077   1
  -1  -7   0 25924.4 691.912   1
   1   7   0 26904.2 702.037   1
  -1   7   0 26949.1 764.883   1
  -1  -7  -1 17132.3 527.282   1
  -1   7  -1 17348.6 621.943   1
   1   7   1 17707.8 522.374   1
   1  -7   1 17757.2 624.628   1
   1   7   2 108779. 1618.18   1
  -1   7  -2 114383. 1983.29   1
   1  -7   2 106205. 1894.12   1
   1   7   3 53214.1 962.156   1
   1  -7   3 54191.5 1256.26   1
  -1   7  -3 52344.8 1239.20   1
  -1   7  -4 48400.9 1241.35   1
   1  -7   4 46702.4 1202.01   1
   1   7   4 46207.3 874.977   1
  -1   7  -4 46119.1 1241.79   2
   1  -7   5 31073.1 996.232   1
   1   7   5 29238.0 674.321   1
  -1   7  -5 31537.0 1059.22   2
   1   7   6 11254.5 406.998   1
   1  -7   6 14580.0 700.127   1
   1   7   6 14346.8 721.003   2
   1   7   7 20145.6 896.162   2
   1  -7   7 20058.0 871.204   1
   1  -7   8 9825.87 629.893   1
   1   7   8 9357.72 634.414   2
  -1  -8  10 14198.3 898.159   1
  -1  -8   9 7791.29 640.167   1
  -1   8   8 14146.1 652.655   2
  -1  -8   8 15437.2 867.807   1
   1   8  -7 2348.92 293.366   2
  -1  -8   7 2390.47 351.810   1
  -1  -8   6 28663.5 1070.34   1
  -1  -8   5 196.382 133.179   1
  -1  -8   4 27675.0 967.213   1
  -1   8   3 54594.8 1243.17   1
  -1  -8   3 52092.8 1307.18   1
   1   8  -3 52285.0 1294.76   1
  -1  -8   2 68589.4 1431.96   1
  -1   8   2 69672.0 1398.91   1
   1   8  -2 66747.0 1437.96   1
  -1  -8   1 141233. 2249.77   1
   1   8  -1 139615. 2223.19   1
  -1   8   1 144031. 2264.20   1
   1   8   0 34362.5 870.573   1
   1  -8   0 36313.2 973.862   1
  -1  -8   0 36081.7 887.592   1
  -1   8   0 34784.6 936.909   1
  -1   8  -1-137.820 106.190   1
  -1  -8  -1-1.99816 89.2589   1
   1  -8   1 72.1989 102.701   1
   1   8   1-216.622 115.157   1
   1   8   2 30119.7 736.859   1
   1  -8   2 29014.7 889.514   1
  -1   8  -2 32405.3 967.851   1
   1  -8   3 9128.28 512.206   1
  -1   8  -3 8901.32 503.571   1
   1   8   3 8481.98 355.122   1
   1   8   4 25655.5 647.290   1
  -1   8  -4 26448.5 933.260   1
   1  -8   4 24815.5 886.852   1
  -1   8  -4 25456.0 930.117   2
  -1   8  -5 4000.70 379.666   1
   1  -8   5 3632.73 355.889   1
   1   8   5 3440.85 229.080   1
  -1   8  -5 3979.99 413.348   2
   1  -8   6 21173.5 882.807   1
   1   8   6 18229.1 535.656   1
   1   8   7 13736.1 766.920   2
   1  -8   7 13759.8 748.918   1
   1   8   8 107.651 173.804   2
   1  -8   8 146.343 164.803   1
  -1  -9  10 181.994 194.477   1
  -1  -9   9 5818.29 582.930   1
  -1  -9   8 2452.05 376.734   1
  -1   9   8 2296.32 279.630   2
   1   9  -7 7147.08 497.691   2
  -1  -9   7 7992.69 603.091   1
  -1  -9   6 25864.8 1048.76   1
  -1   9   5 18299.0 732.000   1
  -1  -9   5 19068.5 840.848   1
  -1   9   4 6861.56 444.015   1
  -1  -9   4 7007.39 482.718   1
   1   9  -3 4329.42 375.273   1
  -1   9   3 4249.33 328.550   1
  -1  -9   3 4197.38 363.418   1
   1   9  -2 31750.4 978.910   1
  -1  -9   2 34178.2 987.853   1
  -1   9   2 33886.2 952.388   1
  -1  -9   1 22554.8 741.956   1
   1  -9  -1 23015.3 786.339   1
  -1   9   1 21483.8 723.779   1
   1   9  -1 20120.1 725.551   1
  -1  -9   0 11776.6 509.087   1
   1  -9   0 11154.7 548.016   1
  -1   9   0 10767.6 525.348   1
   1   9   0 11396.8 498.357   1
  -1  -9  -1 179896. 2655.38   1
  -1   9  -1 179722. 2834.89   1
   1  -9   1 178053. 2849.08   1
   1   9   1 176051. 2602.04   1
   1   9   2 22792.7 674.008   1
   1  -9   2 23295.1 823.012   1
  -1   9  -2 24106.8 871.313   1
  -1   9  -3 74032.4 1660.52   1
   1   9   3 72819.1 1325.58   1
   1  -9   3 73758.6 1643.27   1
   1  -9   4 9534.61 563.033   1
  -1   9  -4 9982.91 578.024   1
   1   9   4 9506.00 400.055   1
   1  -9   5 20172.6 860.939   1
   1   9   5 19395.4 588.698   1
   1  -9   6-22.3359 147.222   1
   1   9   6 90.8186 78.9404   1
   1  -9   7 16382.8 866.196   1
   1   9   7 16980.8 856.473   2
   1  -9   8 2716.45 377.092   1
   1   9   8 2434.72 406.944   2
  -1 -10  10 11158.4 836.146   1
  -1 -10   9 11304.8 804.212   1
  -1 -10   8 2233.10 371.219   1
  -1  10   7 17595.5 818.052   1
  -1 -10   7 20299.3 982.996   1
  -1  10   6 20325.7 825.917   1
  -1 -10   6 20407.1 941.453   1
  -1  10   5 1173.83 236.360   1
  -1 -10   5 1532.77 266.175   1
  -1  10   4 40276.1 1131.92   1
  -1 -10   4 39270.8 1216.36   1
   1  10  -4 37574.3 1219.38   1
  -1  10   3 39698.8 1102.84   1
   1  10  -3 38193.4 1177.82   1
  -1 -10   3 38306.7 1155.95   1
  -1 -10   2 24415.7 866.552   1
   1  10  -2 23835.8 868.991   1
  -1  10   2 25615.0 850.667   1
   1 -10  -1 659.472 173.158   1
  -1  10   1 478.783 142.631   1
   1  10  -1 422.739 144.685   1
  -1 -10   1 149.519 102.110   1
   1 -10   0 107719. 2016.55   1
  -1  10   0 101235. 1962.72   1
  -1 -10   0 100740. 1851.11   1
   1  10   0 100829. 1871.21   1
  -1 -10  -1 20255.1 707.621   1
   1  10   1 20442.2 691.514   1
  -1  10  -1 20793.7 790.891   1
   1 -10   1 20302.0 803.948   1
   1  10   2 55020.3 1211.10   1
   1 -10   2 56380.7 1430.72   1
   1  10   3 612.560 138.379   1
   1 -10   3 425.630 154.900   1
  -1  10  -3 581.515 189.705   1
   1  10   4 13131.2 503.517   1
   1 -10   4 13518.8 703.951   1
   1 -10   5 5484.97 471.310   1
   1  10   5 5537.01 323.540   1
   1 -10   6 34543.8 1249.22   1
   1 -10   7-54.6790 179.043   1
   1  10   8 1445.19 306.215   2
   1 -10   8 1928.30 334.684   1
  -1 -11   9 689.317 269.814   1
  -1 -11   8 2633.38 405.049   1
  -1 -11   7 2370.08 383.978   1
  -1  11   7 2172.83 330.137   1
  -1  11   6 5215.17 424.718   1
  -1 -11   6 4063.11 443.308   1
  -1 -11   5 122056. 2546.92   1
  -1  11   5 122625. 2332.66   1
  -1 -11   4 570.111 191.246   1
  -1  11   4 541.897 152.373   1
   1  11  -3 2230.75 305.995   1
  -1  11   3 2022.99 244.442   1
  -1 -11   3 2093.32 295.390   1
  -1 -11   2 6143.20 441.699   1
   1  11  -2 5089.33 424.163   1
  -1  11   2 6335.42 426.505   1
   1  11  -1 5326.90 404.094   1
  -1 -11   1 5549.54 413.015   1
  -1  11   1 5711.45 412.542   1
   1 -11  -1 5755.46 439.352   1
   1 -11   0 3269.26 336.817   1
  -1  11   0 3364.45 317.832   1
  -1 -11   0 3149.00 302.422   1
   1  11   0 3153.04 305.071   1
   1 -11   1 107656. 2174.03   1
  -1 -11  -1 107082. 1983.03   1
  -1  11  -1 106365. 2134.75   1
   1  11   1 106984. 1968.19   1
  -1  11  -2 2824.15 332.665   1
   1  11   2 2488.55 253.068   1
   1 -11   2 2147.59 290.401   1
   1  11   3 8204.25 433.053   1
   1 -11   3 8165.92 545.023   1
   1 -11   4 1882.31 287.243   1
   1  11   4 1803.81 213.001   1
   1  11   5 15089.4 568.323   1
   1 -11   5 14699.0 794.919   1
   1 -11   6 1098.93 267.992   1
   1 -11   7 6343.77 585.091   1
   1 -11   8 210.176 226.766   1
   1  11   8 634.672 283.098   2
  -1 -12   9 9.41396 229.636   1
  -1 -12   8 167.929 234.888   1
  -1 -12   7 2020.11 362.971   1
  -1  12   6 856.884 213.351   1
  -1 -12   6 620.531 215.904   1
  -1 -12   5 52.0140 165.918   1
  -1  12   5-165.006 161.038   1
  -1 -12   4 39658.8 1309.81   1
  -1  12   4 37496.9 1158.60   1
  -1  12   3 2435.71 287.181   1
  -1 -12   3 2390.32 315.007   1
   1  12  -2 55887.7 1477.24   1
  -1 -12   2 56684.3 1488.44   1
  -1  12   2 56033.6 1440.03   1
  -1 -12   1 21507.4 861.415   1
   1  12  -1 21939.8 869.000   1
   1 -12  -1 21924.8 886.831   1
  -1  12   1 22779.8 858.274   1
   1 -12   0 124899. 2450.92   1
   1  12   0 124984. 2306.13   1
  -1  12   0 124907. 2404.55   1
  -1 -12   0 124266. 2300.73   1
   1 -12   1 3292.26 357.658   1
  -1 -12  -1 3322.41 321.056   1
  -1  12  -1 3355.83 362.463   1
   1  12   1 3629.35 333.792   1
   1 -12   2 18657.6 852.792   1
   1  12   2 18643.4 719.431   1
   1  12   3 650.670 152.302   1
   1 -12   3 561.306 197.469   1
   1  12   4 8209.25 449.197   1
   1 -12   4 8184.90 582.550   1
   1  12   5 7247.65 419.682   1
   1 -12   5 6719.29 559.957   1
   1 -12   6 35560.6 1337.44   1
   1 -12   7 695.183 269.226   1
   1 -12   8 757.661 291.410   1
   1  12   8 214.954 236.333   2
  -1 -13   8 9972.03 782.783   1
  -1 -13   7 4792.55 531.595   1
  -1 -13   6 2332.47 374.032   1
  -1 -13   5 51325.2 1617.36   1
  -1 -13   4 34363.2 1246.87   1
  -1  13   4 33138.5 1112.51   1
  -1 -13   3 35912.1 1223.25   1
  -1  13   3 35111.8 1134.58   1
  -1 -13   2 5783.31 469.122   1
  -1  13   2 6065.02 462.448   1
   1  13  -1 9384.70 568.971   1
  -1  13   1 9455.83 570.809   1
  -1 -13   1 8941.43 558.612   1
  -1 -13   0 1461.59 256.419   1
   1 -13   0 1349.66 265.347   1
   1  13   0 1268.01 231.403   1
   1 -13   1 53686.9 1524.35   1
  -1 -13  -1 51053.3 1389.86   1
   1  13   1 55851.8 1453.28   1
   1 -13   2 4021.33 418.915   1
   1  13   2 3590.36 333.451   1
   1  13   3 6444.20 428.510   1
   1 -13   3 7403.08 562.193   1
   1  13   4 82.8992 114.142   1
   1 -13   4-14.9498 154.398   1
   1 -13   5 12428.7 778.592   1
   1 -13   6 10110.5 719.200   1
   1 -13   7 8414.46 696.893   1
   1 -13   8 2296.87 424.126   1
   1  13   8 2563.66 421.780   2
  -1 -14   8 4960.14 576.389   1
  -1 -14   7 664.695 256.620   1
  -1 -14   6 29012.7 1263.27   1
  -1 -14   5 1335.75 296.619   1
  -1 -14   4 58802.0 1719.87   1
  -1 -14   3 10916.6 687.999   1
  -1 -14   2 1081.03 249.602   1
  -1 -14   1 5198.63 452.957   1
  -1 -14   0 51500.2 1460.63   1
   1  14   0 50473.6 1410.79   1
   1 -14   0 55570.5 1622.72   1
   1 -14   1 10261.0 671.454   1
  -1 -14  -1 9843.80 606.484   1
   1  14   1 9777.04 586.490   1
   1 -14   2 9486.54 655.362   1
   1  14   2 9183.83 551.126   1
   1 -14   3 3343.73 404.040   1
   1  14   3 3321.81 327.103   1
   1  14   4 847.897 198.325   1
   1 -14   4 1165.31 285.274   1
   1 -14   5 3207.63 430.288   1
   1 -14   6 74432.4 2143.47   1
   1 -14   7 451.285 215.806   1
  -1 -15   7 3627.73 501.358   1
  -1 -15   6 7120.09 639.658   1
  -1 -15   5 47624.0 1634.16   1
  -1 -15   4 226.009 220.220   1
  -1 -15   3 12514.7 774.984   1
  -1 -15   2 2414.71 346.114   1
  -1 -15   1 3827.02 409.698   1
  -1 -15   0-24.5446 150.014   1
   1 -15   0 153.268 194.656   1
   1 -15   1 25630.3 1122.96   1
  -1 -15  -1 26104.6 1038.43   1
   1  15   2 7049.02 545.242   1
   1 -15   2 6892.26 592.866   1
   1  15   3-280.772 177.643   1
   1 -15   3 38.0821 183.109   1
   1  15   4 24342.0 925.542   1
   1 -15   4 27274.6 1209.63   1
   1 -15   5 32504.8 1365.87   1
   1 -15   6 798.729 298.161   1
   1 -15   7 4157.98 533.369   1
  -1 -16   7 4997.25 578.305   1
  -1 -16   6 26415.1 1281.15   1
  -1 -16   5 306.948 246.193   1
  -1 -16   4 43875.8 1573.81   1
  -1 -16   3 31245.4 1271.42   1
  -1 -16   2 1915.28 315.943   1
  -1 -16   1 1331.78 276.533   1
   1 -16   0 32598.5 1309.17   1
  -1 -16   0 32538.3 1229.05   1
   1 -16   1 8831.09 663.715   1
  -1 -16  -1 8175.19 620.127   1
   1 -16   2 18871.7 987.928   1
   1 -16   3 3152.59 421.652   1
   1 -16   4 4791.36 538.260   1
   1 -16   5 1918.45 393.393   1
   1 -16   6 4861.93 573.256   1
  -1 -17   6 16740.7 1049.74   1
  -1 -17   5 7254.25 673.767   1
  -1 -17   4 17506.5 1005.32   1
  -1 -17   3 5901.07 565.502   1
  -1 -17   2 855.212 272.399   1
  -1 -17   1 18560.6 967.765   1
  -1 -17   0 1563.80 326.499   1
   1 -17   0 1854.17 358.258   1
   1 -17   1 67330.9 2005.76   1
  -1 -17  -1 66564.5 1867.83   1
   1 -17   2 4546.33 526.601   1
   1 -17   3 2416.79 431.619   1
   1 -17   4 5690.65 604.583   1
   1 -17   5 24626.2 1272.02   1
  -1 -18   5 817.187 280.835   1
  -1 -18   4 13300.6 889.235   1
  -1 -18   3 12206.9 829.798   1
  -1 -18   2 2602.39 389.588   1
  -1 -18   1 20096.6 1046.10   1
  -1 -18   0 25380.3 1165.47   1
   1 -18   0 25274.2 1210.43   1
   1 -18   1 4399.76 531.818   1
  -1 -18  -1 4178.04 481.605   1
   1 -18   2 13996.3 932.911   1
   1 -18   3 415.995 239.637   1
   1 -18   4 986.601 347.311   1
  -1 -19   4 12877.3 922.035   1
  -1 -19   3 14947.4 948.981   1
  -1 -19   2 434.257 218.071   1
  -1 -19   1 45589.6 1667.65   1
   1 -19   0 1835.90 380.042   1
  -1 -19   0 1524.65 332.336   1
  -1 -19  -1 20656.8 1060.62   1
   1 -19   1 21604.7 1181.95   1
   1 -19   2 8021.09 728.764   1
   1 -19   3 14558.4 1000.95   1
  -1 -20   3 4102.93 540.223   1
  -1 -20   2 6375.51 645.521   1
  -1 -20   1 17828.4 1044.51   1
  -1 -20   0 19097.5 1091.73   1
   1 -20   1 8110.30 742.788   1
   1 -20   2 9086.75 799.984   1
  -1 -21   2 990.080 317.622   1
  -1 -21   1 5673.93 627.986   1
  -1 -21   0 2361.81 432.647   1
  -1 -22   0 6604.68 683.008   1
  -2   0  10 32607.2 1229.25   1
   2   0  -2 30598.6 514.456   2
   2   0  -1 26.2890 84.0286   2
   2   0   0 239272. 3032.17   2
   2   0   1 229.733 136.845   2
  -2   0  -1-20.4913 45.2988   1
  -2   0  -2 180564. 2138.71   1
   2   0   2 184144. 2662.30   2
   2   0   3 10.5517 41.4787   1
   2   0   3-23.6912 116.159   2
   2   0   4 44.0397 49.9258   1
   2   0   4-29.8677 125.137   2
   2   0   5-204.797 154.001   2
   2   0   5 25.9686 57.7473   1
   2   0   6 58152.9 1517.20   2
   2   0   6 48000.9 914.887   1
   2   0   7-291.900 185.818   2
  -2  -1  11 692.116 250.383   1
  -2  -1  10 8754.18 642.256   1
  -2   1  10 8161.49 612.939   1
  -2  -1   9 34527.1 1218.16   1
   2   1  -5 100805. 1271.60   2
  -2   1   2 17816.3 369.736   2
   2  -1  -2 17997.5 366.869   2
  -2   1   1 1989.28 158.865   2
   2  -1  -1 2134.31 158.828   2
  -2   1   0 23934.4 614.121   2
   2  -1   0 24544.5 604.357   2
   2   1   0 25502.0 640.652   2
   2  -1   1 351791. 4374.72   2
   2   1   1 349524. 4403.22   2
  -2   1  -1 353653. 4055.11   1
   2  -1   2 725.695 98.7929   1
  -2   1  -2 939.054 108.389   1
   2  -1   2 864.587 163.633   2
   2   1   2 521.438 146.064   2
  -2   1  -2 749.659 166.474   2
  -2   1  -3 1220.52 117.694   1
   2  -1   3 1155.77 193.639   2
  -2   1  -3 1575.72 219.098   2
   2  -1   3 975.574 114.710   1
   2   1   3 1354.06 210.949   2
   2   1   4 6349.35 424.002   2
   2  -1   4 6502.44 441.140   2
   2  -1   4 6143.17 274.065   1
   2  -1   5 43478.5 1186.84   2
   2   1   5 42358.2 1180.40   2
   2  -1   5 41436.9 797.384   1
   2   1   6 1957.33 139.036   1
   2  -1   6 2830.50 213.578   1
   2  -1   6 2602.75 322.689   2
   2   1   6 2973.44 338.617   2
   2  -1   7 4844.08 290.817   1
   2   1   7 4820.49 459.200   2
   2   1   8-417.105 248.884   2
  -2  -2  11 290.929 220.429   1
  -2  -2  10 22877.6 1055.83   1
  -2  -2   9 109.500 162.621   1
  -2  -2   8 14863.8 763.067   1
   2   2  -6 1957.14 142.232   2
   2   2  -5 352.819 69.3559   2
  -2   2   3 1670.79 89.5269   2
  -2   2   2 10116.1 283.136   2
  -2   2   1 2293.79 173.781   2
   2  -2   0 91289.1 1421.02   2
  -2   2   0 88505.3 1430.19   2
   2  -2   1 4156.00 278.455   2
  -2   2  -1 4436.84 287.736   2
  -2   2  -1 4147.45 217.767   1
   2  -2   2 43756.0 843.087   1
   2  -2   2 43004.5 1034.35   2
  -2   2  -2 44585.4 1074.81   2
   2   2   2 43167.8 1041.38   2
  -2   2  -2 44260.7 819.702   1
   2  -2   3 1661.32 158.788   1
  -2   2  -3 2062.13 167.911   1
   2  -2   3 1670.94 223.298   2
   2   2   3 1817.15 242.463   2
  -2   2  -3 1836.95 245.046   2
  -2   2  -4 6619.88 449.944   2
   2  -2   4 6362.64 442.200   2
   2   2   4 6287.83 429.874   2
   2  -2   4 5813.48 308.582   1
  -2   2  -5 4028.31 392.242   2
   2  -2   5 3365.30 369.318   2
   2  -2   5 4196.24 265.218   1
   2   2   5 4045.20 375.103   2
   2  -2   6 111017. 1819.45   1
   2   2   6 114555. 2304.11   2
   2  -2   7 1934.85 211.935   1
   2   2   7 2128.83 322.003   2
   2   2   8 126.949 177.611   2
  -2  -3  11 5450.41 554.858   1
  -2  -3  10 2051.82 346.595   1
  -2  -3   9 44041.7 1443.20   1
  -2  -3   8 16089.4 813.053   1
  -2  -3   7 2265.28 303.459   1
   2   3  -7 2369.84 192.565   2
   2   3  -6 15229.2 431.288   2
  -2   3   6 12061.9 323.036   2
  -2   3   5 87576.7 1141.95   2
  -2   3   1 5077.50 255.372   2
  -2   3   0 62313.4 1143.42   2
  -2   3   0 62501.3 1112.97   1
  -2   3  -1 264646. 3279.50   2
  -2   3  -1 257457. 3027.87   1
   2  -3   2 6507.10 314.887   1
  -2   3  -2 6544.59 390.598   2
  -2   3  -2 6466.20 304.672   1
  -2   3  -3 9590.90 394.457   1
   2  -3   3 8792.51 378.035   1
  -2   3  -3 8870.15 486.878   2
   2   3   3 8773.41 486.198   2
  -2   3  -4 12683.6 644.818   2
   2   3   4 11707.9 604.066   2
   2  -3   4 11458.8 457.451   1
   2   3   5 25861.4 937.362   2
   2  -3   5 24707.0 714.357   1
  -2   3  -5 27907.7 1021.12   2
   2  -3   6 130.621 100.995   1
   2   3   6 229.006 183.686   2
   2  -3   7 24703.5 785.218   1
   2   3   7 23869.6 1028.77   2
   2   3   8 16975.8 895.986   2
   2   3   9 40.2701 215.607   2
  -2  -4  11 3224.34 425.527   1
  -2  -4  10 12109.4 795.888   1
  -2  -4   9 723.938 237.370   1
  -2  -4   8 8165.28 586.714   1
   2   4  -8 8608.48 407.846   2
  -2   4   8 6423.45 292.245   2
  -2  -4   7 1424.20 265.775   1
  -2   4   7 804.628 110.307   2
   2   4  -7 905.488 134.962   2
  -2   4   6 45423.5 788.889   2
   2   4  -6 44660.5 915.882   2
  -2  -4   6 47719.7 1287.83   1
  -2  -4   1 43333.5 850.949   1
  -2  -4   0 218535. 2677.31   1
  -2   4   0 219168. 2916.39   1
  -2   4   0 219409. 2955.84   2
  -2   4  -1 3737.09 281.263   2
  -2  -4  -1 3301.38 141.219   1
   2  -4   1 3527.24 252.657   1
  -2   4  -1 3384.29 239.144   1
   2  -4   2 81108.9 1416.36   1
  -2   4  -2 80062.9 1584.84   2
  -2   4  -2 79865.6 1399.59   1
  -2   4  -3 24540.4 693.879   1
  -2   4  -3 24196.0 834.599   2
   2  -4   3 23931.4 693.751   1
   2  -4   4 141.266 96.8431   1
  -2   4  -4 97.0962 91.6090   1
  -2   4  -4 290.658 173.914   2
   2   4   4 268.480 170.970   2
   2   4   5 8797.24 571.491   2
   2  -4   5 10296.0 480.569   1
  -2   4  -5 10314.2 626.806   2
   2   4   6 3890.00 410.893   2
   2  -4   6 4159.80 324.790   1
   2   4   7 5684.99 508.947   2
   2  -4   7 5765.79 398.910   1
   2   4   8 1384.96 299.553   2
   2   4   9 201.962 238.478   2
  -2  -5  11 11155.7 792.967   1
  -2  -5  10 322.147 206.993   1
  -2  -5   9 20544.0 985.941   1
  -2  -5   8 2996.58 376.852   1
  -2   5   8 2782.13 203.207   2
   2   5  -8 3121.76 265.591   2
  -2  -5   7 5474.12 469.448   1
  -2   5   7 5675.77 272.310   2
   2   5  -7 5717.90 334.566   2
  -2  -5   6 17819.7 794.389   1
   2   5  -6 16297.2 554.563   2
  -2  -5   5 68765.7 1577.52   1
  -2  -5   4 1097.33 190.978   1
  -2  -5   3 58719.9 1255.01   1
  -2  -5   2 8764.70 413.770   1
  -2  -5   1 65083.9 1168.27   1
  -2   5   1 64978.4 1261.36   1
  -2   5   0 36829.4 895.098   1
  -2  -5   0 37366.8 740.678   1
   2  -5   1 8211.14 408.430   1
  -2   5  -1 8326.25 425.532   2
  -2   5  -1 7280.35 377.549   1
  -2  -5  -1 8144.56 261.434   1
   2  -5   2 8847.97 425.613   1
  -2   5  -2 8383.39 409.509   1
  -2   5  -2 8442.18 464.610   2
  -2   5  -3 10039.2 460.729   1
  -2   5  -3 10458.5 556.484   2
   2  -5   3 9370.86 453.434   1
   2  -5   4 410.317 134.258   1
   2   5   4 1046.13 218.524   2
  -2   5  -4 458.020 131.835   1
  -2   5  -4 487.587 199.167   2
   2   5   5 12493.3 683.991   2
   2  -5   5 13534.5 583.995   1
   2  -5   6 2828.31 286.510   1
   2   5   6 2681.95 349.349   2
   2   5   7 15322.6 822.679   2
   2  -5   7 15881.4 705.557   1
   2   5   8 4654.95 507.191   2
   2   5   9 10459.2 748.049   2
  -2  -6  11 5205.62 573.569   1
  -2  -6  10 18149.0 994.583   1
  -2  -6   9 1901.72 338.340   1
  -2  -6   8 11509.9 710.659   1
  -2   6   8 12280.0 447.558   2
   2   6  -8 11251.1 527.159   2
  -2  -6   7 994.839 227.560   1
   2   6  -7 1033.98 175.200   2
  -2   6   7 658.098 105.698   2
  -2  -6   6 45504.0 1331.26   1
  -2  -6   5 575.844 179.431   1
  -2  -6   4 124950. 2224.38   1
  -2  -6   3 37554.9 1006.29   1
  -2  -6   2 16145.0 574.052   1
  -2   6   1 256.846 107.665   1
  -2  -6   1 99.4717 96.2331   1
  -2   6   0 60216.1 1240.04   1
  -2  -6   0 59122.5 1068.32   1
   2  -6   1 980.208 183.097   1
   2   6   1 607.146 88.5174   1
  -2   6  -1 844.548 155.133   1
  -2  -6  -1 707.812 102.111   1
   2  -6   2 32225.3 902.462   1
  -2   6  -2 31964.1 955.690   2
  -2   6  -2 32641.2 894.933   1
   2   6   2 32353.0 584.353   1
   2  -6   3 2135.74 250.582   1
  -2   6  -3 2288.48 245.202   1
  -2   6  -3 2131.58 277.118   2
  -2   6  -4 3928.15 326.204   1
  -2   6  -4 3922.07 389.334   2
   2  -6   4 3909.72 332.144   1
   2   6   5 17662.2 821.560   2
   2  -6   5 17665.2 716.666   1
   2  -6   6 159.989 140.778   1
   2   6   6-16.3383 170.375   2
   2  -6   7-20.9598 122.622   1
   2   6   7-31.3229 176.734   2
   2   6   8 2535.38 391.025   2
  -2  -7  11 3179.38 488.303   1
  -2  -7  10 141.501 231.984   1
  -2  -7   9 7677.33 635.080   1
  -2  -7   8 10494.0 692.079   1
   2   7  -8 10214.6 529.269   2
  -2   7   8 10754.0 447.462   2
   2   7  -7 1965.29 251.819   2
  -2  -7   7 2540.19 348.992   1
  -2  -7   6 51922.0 1446.83   1
  -2  -7   5 16710.1 749.250   1
  -2  -7   4 3505.84 324.846   1
  -2  -7   3 82588.8 1681.18   1
  -2  -7   2 72908.2 1450.65   1
  -2   7   2 75124.0 1499.15   1
  -2   7   1 154095. 2442.53   1
  -2  -7   1 158690. 2331.83   1
   2   7  -1 148827. 2313.44   1
  -2  -7   0 44085.1 946.162   1
  -2   7   0 44557.2 1081.06   1
   2   7   0 46061.2 963.003   1
   2   7   1 44278.0 860.034   1
   2  -7   1 44845.4 1129.73   1
  -2   7  -1 43838.1 1079.58   1
  -2  -7  -1 41685.9 837.876   1
   2   7   2 71086.6 1107.44   1
   2  -7   2 72915.0 1526.45   1
  -2   7  -2 71207.4 1498.90   1
  -2   7  -2 71981.0 1592.13   2
   2  -7   3 41182.6 1105.09   1
   2   7   3 37919.8 650.237   1
  -2   7  -3 42160.9 1114.23   1
  -2   7  -3 41546.8 1195.94   2
  -2   7  -4 10662.6 558.899   1
  -2   7  -4 11129.8 644.328   2
   2  -7   4 10878.5 561.468   1
   2  -7   5 13190.8 651.183   1
  -2   7  -5 13062.7 638.422   1
   2   7   6 8662.84 628.873   2
   2  -7   6 8628.22 544.504   1
   2   7   7 8579.95 660.142   2
   2  -7   7 8426.71 566.638   1
   2   7   8-344.000 230.247   2
  -2  -8  10 1681.69 356.972   1
  -2  -8   9 5770.20 565.619   1
  -2  -8   8 51015.3 1618.92   1
   2   8  -8 49992.7 1288.15   2
  -2   8   8 50106.4 1126.92   2
  -2  -8   7 10714.0 692.453   1
  -2  -8   6 71346.0 1768.16   1
  -2  -8   5 60391.4 1558.00   1
  -2  -8   4 2109.47 270.668   1
  -2  -8   3 196.367 128.703   1
  -2  -8   2 84162.6 1655.03   1
  -2   8   2 87167.0 1728.23   1
  -2  -8   1 53.4588 115.729   1
   2   8  -1 231.696 122.708   1
  -2   8   1-23.2975 110.163   1
   2   8   0 8975.56 416.860   1
  -2  -8   0 9312.62 417.278   1
   2  -8   0 9208.51 501.343   1
  -2   8   0 9089.66 471.399   1
   2   8   1 6311.11 315.375   1
   2  -8   1 6879.21 439.453   1
  -2   8  -1 6841.96 422.533   1
  -2  -8  -1 6566.62 324.900   1
   2   8   2 1554.37 152.532   1
  -2   8  -2 1694.20 239.135   1
   2  -8   2 1859.24 252.716   1
   2  -8   3 10651.3 575.533   1
   2   8   3 11873.9 361.340   1
  -2   8  -3 11502.3 588.949   1
  -2   8  -3 11422.7 629.400   2
  -2   8  -4 62198.4 1463.73   1
   2  -8   4 64347.7 1481.99   1
   2  -8   5 28601.8 1025.41   1
  -2   8  -5 28648.2 1029.34   1
   2   8   6 6683.35 548.943   2
   2  -8   6 7623.33 550.030   1
   2   8   7 4640.73 507.938   2
   2  -8   7 5222.34 475.061   1
   2   8   8 10046.6 743.683   2
  -2  -9  10 4161.53 560.328   1
  -2  -9   9 1970.82 375.236   1
  -2  -9   8-140.857 222.642   1
  -2  -9   7 75352.6 1963.73   1
  -2  -9   6 872.784 232.306   1
  -2  -9   5 42747.4 1316.81   1
  -2  -9   4 19162.2 813.095   1
  -2  -9   3 1995.12 262.651   1
  -2   9   3 2120.96 260.815   1
  -2   9   2 20725.4 784.221   1
  -2  -9   2 21015.1 779.887   1
   2   9  -2 20367.1 752.457   1
   2   9  -1 38616.0 1025.89   1
  -2  -9   1 36907.9 994.160   1
  -2   9   1 37649.5 1066.75   1
   2   9   0 11053.9 491.883   1
  -2  -9   0 10749.5 478.780   1
   2  -9   0 10926.5 569.386   1
  -2   9   0 10215.6 536.784   1
   2   9   1 10901.9 449.424   1
   2  -9   1 12210.3 613.892   1
  -2  -9  -1 11516.5 470.850   1
  -2   9  -1 11953.9 585.006   1
   2  -9   2 17133.9 745.266   1
  -2  -9  -2 16882.6 545.684   1
  -2   9  -2 17953.6 742.991   1
   2   9   2 17332.1 547.472   1
   2  -9   3 169501. 2876.47   1
  -2   9  -3 164343. 2865.39   1
  -2   9  -3 167245. 2977.50   2
   2   9   3 165965. 2241.97   1
   2   9   4 3027.61 179.193   1
  -2   9  -4 3007.71 338.781   1
   2  -9   4 3359.99 360.307   1
   2   9   5 3164.42 121.412   1
   2  -9   5 6014.20 486.551   1
   2  -9   6 2422.15 351.594   1
   2   9   6 2664.00 395.117   2
   2  -9   7 11287.8 704.997   1
   2   9   7 11105.9 767.274   2
   2   9   8 2739.20 449.258   2
  -2 -10  10 1254.13 351.304   1
  -2 -10   9 1034.92 299.714   1
  -2 -10   8 12230.2 837.354   1
  -2 -10   7 7589.00 609.082   1
  -2 -10   6 14307.6 796.588   1
  -2 -10   5 80.1735 151.425   1
  -2  10   4 138.498 105.280   1
  -2 -10   4-26.9977 131.339   1
  -2  10   3 12257.5 618.909   1
  -2 -10   3 11683.2 630.673   1
  -2  10   2 170760. 2801.18   1
  -2 -10   2 165826. 2717.37   1
   2  10  -1 18188.7 702.333   1
  -2 -10   1 17300.8 692.623   1
  -2  10   1 18127.7 744.937   1
   2  10   0 5400.34 365.113   1
   2 -10   0 5756.17 436.216   1
  -2 -10   0 5053.81 349.967   1
  -2  10   0 5809.94 420.765   1
   2 -10   1 11115.7 614.521   1
  -2  10  -1 10787.9 579.310   1
   2  10   1 9965.61 461.124   1
  -2 -10  -1 10565.7 480.100   1
  -2 -10  -2 19671.0 637.013   1
   2 -10   2 20649.6 863.423   1
  -2  10  -2 21018.8 850.785   1
   2  10   2 20481.4 629.845   1
   2 -10   3 5274.08 450.568   1
   2  10   3 5702.25 302.417   1
  -2  10  -3 5108.29 440.313   1
   2  10   4 85447.0 1349.51   1
   2 -10   4 86666.6 1981.40   1
   2 -10   5 10745.3 675.280   1
   2 -10   6 1429.80 283.418   1
   2  10   7 8908.67 701.359   2
   2 -10   7 8744.13 655.192   1
   2  10   8 12009.2 848.963   2
  -2 -11   9 1851.08 397.690   1
  -2 -11   8 995.237 289.554   1
  -2 -11   7 33923.3 1366.70   1
  -2 -11   6 624.074 260.066   1
  -2 -11   5 270.897 175.958   1
  -2  11   5 593.550 167.515   1
  -2 -11   4 1105.93 241.789   1
  -2  11   4 1197.08 213.328   1
  -2  11   3 56612.2 1466.75   1
  -2 -11   3 56218.8 1481.43   1
  -2 -11   2 11501.9 614.068   1
   2  11  -2 11379.8 620.934   1
  -2  11   2 11541.7 623.289   1
   2  11  -1 49964.2 1283.47   1
  -2 -11   1 50678.0 1284.08   1
  -2  11   1 49814.7 1320.07   1
   2  11   0 13182.3 603.772   1
   2 -11   0 13387.1 694.798   1
  -2  11   0 14671.2 694.948   1
  -2 -11   0 13676.6 609.854   1
  -2 -11  -1 1005.67 176.687   1
  -2  11  -1 964.827 194.232   1
   2  11   1 841.044 154.916   1
   2 -11   1 1306.92 256.461   1
  -2 -11  -2-64.7526 94.0104   1
   2 -11   2 69.6233 131.308   1
   2  11   2-32.6790 87.8350   1
   2  11   3 108788. 1798.49   1
   2 -11   3 113227. 2367.18   1
   2  11   4 1979.83 188.413   1
   2 -11   4 1463.19 274.729   1
   2 -11   5 641.940 220.712   1
   2 -11   6 471.978 233.536   1
   2 -11   7 2397.22 409.902   1
   2  11   7 2530.20 400.394   2
   2  11   8 2204.45 405.745   2
  -2 -12   9 1586.56 367.312   1
  -2 -12   8 8328.92 709.701   1
  -2 -12   7 55.3406 191.080   1
  -2 -12   6 8402.95 654.696   1
  -2 -12   5 18820.7 932.898   1
  -2 -12   4 232.198 168.855   1
  -2  12   3 4214.23 400.328   1
  -2 -12   3 3476.25 382.188   1
   2  12  -2 225842. 3663.15   1
  -2 -12   2 226539. 3602.39   1
  -2  12   2 226340. 3641.95   1
   2  12  -1 2969.80 321.304   1
  -2 -12   1 3229.58 325.819   1
  -2  12   1 3483.76 351.961   1
   2  12   0 21199.0 808.978   1
   2 -12   0 22571.2 934.534   1
  -2 -12   0 21210.9 797.108   1
  -2 -12  -1 11925.8 585.886   1
   2  12   1 11128.7 557.569   1
   2 -12   1 12422.4 718.814   1
   2  12   2 16042.2 620.218   1
   2 -12   2 16093.5 838.225   1
  -2 -12  -2 16066.6 646.596   1
   2 -12   3 4221.38 433.205   1
   2  12   3 4692.45 318.426   1
   2 -12   4 37983.5 1338.36   1
   2  12   4 37375.2 899.135   1
   2 -12   5 2348.56 373.522   1
   2 -12   6 1460.59 334.970   1
   2 -12   7 4553.63 544.359   1
   2  12   7 4718.72 560.343   2
   2  12   8 14987.7 983.719   2
  -2 -13   8 2129.33 375.052   1
  -2 -13   7 114673. 2750.46   1
  -2 -13   6 618.341 223.522   1
  -2 -13   5 380.232 189.577   1
  -2 -13   4 9934.88 663.326   1
  -2 -13   3 16177.7 817.564   1
  -2 -13   2 1230.25 241.975   1
   2  13  -1 71516.3 1721.18   1
  -2 -13   1 71069.2 1704.76   1
  -2 -13   0-45.2432 112.478   1
   2  13   0 134.181 114.344   1
   2 -13   0-111.380 146.302   1
  -2 -13  -1 384.950 153.345   1
   2 -13   1 471.427 190.511   1
   2  13   1 293.144 131.445   1
  -2 -13  -2 620.441 155.054   1
   2 -13   2 635.508 214.704   1
   2  13   2 622.949 137.988   1
   2 -13   3 24154.8 1064.43   1
   2  13   3 23973.8 782.089   1
   2 -13   4 3457.77 435.398   1
   2 -13   5 571.331 235.816   1
   2 -13   6 386.419 250.379   1
   2 -13   7 1461.14 364.920   1
  -2 -14   8 21246.9 1175.60   1
  -2 -14   7 705.079 278.842   1
  -2 -14   6 26946.9 1217.93   1
  -2 -14   5 10917.3 754.825   1
  -2 -14   4 269.734 167.879   1
  -2 -14   3 1112.08 256.923   1
  -2 -14   2 123118. 2523.64   1
  -2 -14   1 908.345 210.797   1
   2  14   0 11728.9 655.374   1
  -2 -14   0 12462.9 670.331   1
  -2 -14  -1 1830.71 280.224   1
   2 -14   1 2229.87 353.174   1
   2  14   1 1938.72 263.865   1
   2  14   2 14074.1 649.437   1
   2 -14   2 15019.0 858.636   1
   2  14   3 3479.01 313.234   1
   2 -14   3 3457.07 431.033   1
   2 -14   4 24256.7 1139.25   1
   2 -14   5 581.800 255.254   1
   2 -14   6 259.492 220.201   1
   2 -14   7 4449.08 573.860   1
  -2 -15   7 40065.5 1615.79   1
  -2 -15   6 565.355 205.128   1
  -2 -15   5 5631.73 567.355   1
  -2 -15   4 16724.0 906.976   1
  -2 -15   3 51642.9 1595.67   1
  -2 -15   2 32334.7 1217.69   1
  -2 -15   1 13793.8 731.093   1
  -2 -15   0 18074.6 851.049   1
   2 -15   1 163.317 202.593   1
  -2 -15  -1 191.829 136.462   1
   2  15   1 183.188 147.710   1
   2  15   2 927.265 170.284   1
   2 -15   2 1376.21 312.447   1
   2  15   3 21068.8 816.729   1
   2 -15   3 23867.4 1133.64   1
   2 -15   4 209.793 218.736   1
   2 -15   5 11471.6 826.909   1
   2 -15   6 1455.10 359.899   1
  -2 -16   7 1051.27 327.351   1
  -2 -16   6 35203.8 1482.45   1
  -2 -16   5 6454.57 620.963   1
  -2 -16   4 23353.3 1110.05   1
  -2 -16   3 7975.35 626.872   1
  -2 -16   2 13459.3 788.389   1
  -2 -16   1 1853.72 308.685   1
  -2 -16   0 4689.50 460.021   1
  -2 -16  -1 83.1331 151.011   1
   2 -16   1-95.9714 210.162   1
   2 -16   2 16749.7 1005.48   1
   2 -16   3 1515.34 340.102   1
   2 -16   4 23331.4 1207.57   1
   2 -16   5 1556.89 365.320   1
   2 -16   6-64.9089 214.973   1
  -2 -17   6 38.7438 195.454   1
  -2 -17   5 173.355 202.373   1
  -2 -17   4 478.052 258.166   1
  -2 -17   3 32758.0 1343.98   1
  -2 -17   2 914.607 237.180   1
  -2 -17   1 61467.3 1798.52   1
  -2 -17   0 10283.7 689.956   1
   2 -17   1 2172.31 362.166   1
  -2 -17  -1 1388.65 283.440   1
   2 -17   2 19869.8 1123.79   1
   2 -17   3 16935.2 1039.15   1
   2 -17   4 225.229 223.136   1
   2 -17   5 18028.1 1137.75   1
  -2 -18   5 2280.35 411.644   1
  -2 -18   4 1785.73 361.573   1
  -2 -18   3 9176.73 737.316   1
  -2 -18   2 4215.03 478.664   1
  -2 -18   1 9022.75 690.810   1
  -2 -18   0 21361.9 1043.69   1
  -2 -18  -1 3869.40 445.423   1
   2 -18   1 4103.12 518.227   1
   2 -18   2 15442.5 1010.45   1
   2 -18   3 10665.8 869.073   1
   2 -18   4 1131.79 333.682   1
  -2 -19   4 8637.55 748.264   1
  -2 -19   3 7174.76 655.854   1
  -2 -19   2 7024.02 644.272   1
  -2 -19   1 22440.6 1133.19   1
  -2 -19   0 7098.88 632.359   1
  -2 -19  -1 17538.1 952.969   1
   2 -19   2 1666.66 390.956   1
   2 -19   3 5050.53 651.445   1
  -2 -20   3 17244.1 1053.04   1
  -2 -20   2 5281.89 596.706   1
  -2 -20   1 543.836 238.437   1
  -2 -20   0 10676.9 791.373   1
  -2 -20  -1 2975.73 419.947   1
  -2 -21   2 179.155 229.725   1
  -2 -21   1 4178.15 547.778   1
  -2 -21   0 2104.81 383.558   1
  -2 -22   1 724.951 296.362   1
  -2 -22   0 28428.7 1407.88   1
  -3   0  11-278.709 235.437   1
   3   0  -4 41.0418 26.6020   2
   3   0  -3 6.95302 55.5015   2
   3   0  -2 122889. 1744.10   2
   3   0  -1-88.9069 115.860   2
   3   0   0 53153.0 1123.20   2
  -3   0  -1 38.3783 52.8443   1
   3   0   1 218.606 151.742   2
  -3   0  -2 2246.03 132.054   1
   3   0   2 2617.55 290.036   2
   3   0   3-42.8316 146.144   2
   3   0   4 148640. 2706.27   2
   3   0   5-145.842 168.527   2
   3   0   6 26910.0 1116.53   2
   3   0   7 302.448 223.512   2
  -3  -1  11 17649.5 1002.87   1
   3   1  -4 3475.39 142.173   2
   3  -1  -3 2546.61 152.854   2
   3   1  -3 2917.79 177.953   2
   3  -1  -2 17060.6 477.740   2
   3   1  -2 17316.8 491.331   2
  -3   1   2 16776.4 490.637   2
   3  -1  -1 313909. 3972.39   2
   3   1  -1 320381. 4005.78   2
  -3   1   1 319060. 4011.19   2
   3   1   0 3962.36 295.799   2
  -3   1   0 3534.22 278.780   2
   3  -1   0 3583.39 284.236   2
  -3   1  -1 12860.3 566.468   2
  -3   1  -1 11923.3 388.651   1
   3  -1   1 12692.0 550.306   2
   3   1   1 13033.3 568.272   2
   3  -1   2 10151.9 527.102   2
  -3   1  -2 10634.2 332.798   1
  -3   1  -2 10870.3 565.700   2
   3   1   2 10298.7 533.215   2
  -3   1  -3 9454.95 322.047   1
   3  -1   3 9242.04 537.773   2
   3   1   3 8665.73 520.739   2
   3  -1   4 12400.2 671.367   2
   3   1   4 12545.4 666.517   2
   3  -1   5 11553.9 681.366   2
   3   1   5 12818.1 716.671   2
   3  -1   6 3989.42 462.505   2
   3   1   6 3635.03 417.493   2
   3   1   7 144.232 186.501   2
   3   1   8-85.5027 255.497   2
  -3  -2  11 647.211 271.177   1
  -3  -2  10 5264.88 529.466   1
  -3   2   3 2192.96 148.608   2
   3  -2  -2 189930. 2501.57   2
  -3   2   2 188245. 2511.85   2
   3  -2  -1 3780.46 263.020   2
  -3   2   1 3852.67 268.336   2
   3  -2   0 31509.2 832.932   2
   3   2   0 33116.9 899.395   2
  -3   2   0 31883.3 873.840   2
  -3   2  -1 35700.6 778.100   1
   3  -2   1 35376.2 960.896   2
  -3   2  -1 37134.2 1019.41   2
   3   2   1 35306.8 971.369   2
   3  -2   2 16955.8 688.468   2
  -3   2  -2 17265.8 499.184   1
   3   2   2 17449.9 711.345   2
  -3   2  -2 17403.8 732.220   2
   3  -2   3 72.8349 141.964   2
  -3   2  -3 80.0310 63.9986   1
   3   2   3-45.4893 140.726   2
  -3   2  -3 130.085 134.674   2
   3   2   4 79854.3 1828.59   2
   3  -2   4 75258.1 1796.91   2
   3  -2   5 2488.69 364.138   2
   3   2   5 2422.08 360.047   2
   3   2   6 430.788 203.363   2
   3   2   7 4291.89 485.998   2
   3   2   8 3368.42 473.240   2
  -3  -3  11 6243.39 615.041   1
  -3  -3  10 25383.4 1186.72   1
  -3  -3   9 1180.75 291.823   1
   3   3  -6 68.6278 38.8606   2
  -3   3   4 63191.1 905.588   2
  -3   3   3 5842.29 255.147   2
  -3   3   2 34890.1 773.284   2
  -3   3   1 144839. 2158.77   2
   3  -3   0 7969.80 415.821   2
  -3   3   0 7726.15 367.400   1
  -3   3   0 7883.44 416.450   2
  -3   3  -1 2211.10 265.715   2
   3  -3   1 2063.61 232.400   2
  -3  -3  -1 2019.21 111.672   1
  -3   3  -1 1971.13 189.086   1
   3  -3   2 77800.0 1661.57   2
  -3   3  -2 81487.6 1738.27   2
   3   3   2 78040.4 1668.07   2
  -3   3  -2 79016.9 1366.65   1
  -3   3  -3 33607.3 801.096   1
  -3   3  -3 33934.5 1123.08   2
   3  -3   3 33177.9 1065.66   2
   3   3   3 32527.0 1074.59   2
  -3   3  -4-46.4558 80.9515   1
   3   3   4-84.4377 151.732   2
   3   3   5 42831.2 1369.04   2
   3  -3   5 46556.1 1044.91   1
   3  -3   6 4462.30 316.235   1
   3   3   6 4110.39 460.641   2
   3   3   7 448.098 225.663   2
   3   3   8 196.666 215.098   2
  -3  -4  11 3696.07 489.369   1
  -3  -4  10 10513.4 764.965   1
  -3  -4   9 20426.5 1013.68   1
   3   4  -8 33541.4 702.271   2
  -3  -4   8 34718.8 1266.91   1
   3   4  -7 1971.48 160.608   2
  -3   4   5 98997.6 1280.05   2
  -3   4   4 49997.5 835.536   2
  -3   4   3 20738.2 533.247   2
  -3   4   2 5060.48 290.559   2
  -3   4   1-27.4048 95.4303   2
  -3   4   0 114143. 1973.75   2
  -3   4   0 117042. 1922.88   1
  -3  -4  -1 9969.35 268.790   1
  -3   4  -1 10114.1 517.916   2
  -3   4  -1 10543.6 441.362   1
  -3   4  -2 6462.06 451.578   2
  -3   4  -2 6311.80 347.808   1
  -3   4  -3 22939.3 696.667   1
  -3   4  -3 23106.4 914.658   2
   3   4   3 21926.9 871.085   2
  -3   4  -4 19528.1 660.046   1
   3  -4   4 19924.5 682.313   1
   3   4   4 18865.4 859.668   2
   3  -4   5 11620.9 533.495   1
   3   4   5 10726.8 669.627   2
   3  -4   6 37.6993 119.252   1
   3   4   6 119.306 193.312   2
   3   4   7 724.856 282.893   2
   3   4   8 270.603 223.916   2
  -3  -5  11 12583.2 881.588   1
  -3  -5  10 2674.59 416.463   1
  -3  -5   9 7154.85 622.747   1
   3   5  -8 14548.9 474.694   2
  -3  -5   8 14641.2 830.875   1
  -3  -5   7 1279.28 258.347   1
   3   5  -7 1068.00 138.243   2
  -3   5   2 4871.10 298.440   2
  -3   5   1 92779.4 1629.11   2
  -3  -5   1 89804.0 1503.02   1
  -3  -5   0 5753.29 270.298   1
  -3   5   0 5088.34 340.122   1
  -3   5   0 5050.55 359.426   2
  -3   5  -1 26264.2 870.640   2
  -3   5  -1 25333.4 747.497   1
  -3  -5  -1 25239.7 509.766   1
  -3   5  -2 26742.4 792.457   1
  -3   5  -2 28187.8 955.463   2
  -3   5  -3 22179.5 731.448   1
   3  -5   3 21652.1 749.580   1
  -3   5  -3 22522.9 913.109   2
   3   5   3 22894.6 926.925   2
   3  -5   4 1424.61 217.214   1
  -3   5  -4 1733.93 217.110   1
   3   5   4 1710.22 290.208   2
   3  -5   5 23648.3 814.104   1
   3   5   5 20846.3 974.495   2
   3  -5   6 6348.88 437.788   1
   3   5   6 5817.40 546.256   2
   3   5   7 164.509 204.638   2
   3   5   8 6049.16 605.046   2
  -3  -6  11 3402.26 478.743   1
  -3  -6  10 5005.39 558.333   1
  -3  -6   9 283.306 214.968   1
  -3  -6   8 60729.7 1769.37   1
   3   6  -8 60274.5 1199.45   2
  -3  -6   7 1917.69 325.607   1
  -3   6   7 1198.98 105.349   2
  -3  -6   6 34192.1 1160.13   1
  -3  -6   5 23401.5 892.155   1
  -3  -6   4 20533.8 771.077   1
  -3  -6   3 68589.2 1456.35   1
  -3  -6   2 163838. 2527.45   1
  -3   6   1-4.16579 97.2592   1
  -3  -6   1 65.6770 91.7803   1
  -3   6   1 20.1119 123.419   2
  -3   6   0 71161.5 1490.70   1
  -3  -6   0 72296.0 1235.14   1
  -3   6   0 70646.5 1493.10   2
  -3  -6  -1 13997.5 392.483   1
  -3   6  -1 14059.8 641.846   2
  -3   6  -1 13600.9 573.648   1
  -3   6  -2 1113.94 186.521   1
  -3   6  -2 909.499 224.563   2
  -3   6  -3 10337.1 524.215   1
   3  -6   3 10380.7 548.327   1
  -3   6  -4 5686.92 395.050   1
   3  -6   4 6226.83 439.658   1
   3   6   4 5564.09 482.334   2
   3  -6   5 17440.2 739.484   1
   3   6   5 17287.5 889.721   2
  -3   6  -5 16731.2 710.543   1
   3  -6   6-63.0763 146.915   1
   3   6   6 157.372 197.438   2
   3   6   7 952.589 297.477   2
   3   6   8 131.954 219.434   2
  -3  -7  10 227.194 237.262   1
  -3  -7   9 9747.73 723.412   1
  -3  -7   8 22530.4 1041.95   1
   3   7  -8 21548.1 704.585   2
  -3   7   8 20441.9 485.174   2
  -3  -7   7 7209.19 574.921   1
  -3  -7   6 29354.6 1098.19   1
  -3  -7   5 46281.8 1352.53   1
  -3  -7   4 4262.39 376.633   1
  -3  -7   3 123265. 2205.16   1
  -3  -7   2 7021.79 411.342   1
  -3  -7   1 13788.0 531.098   1
  -3   7   1 15293.6 647.248   1
  -3   7   0 149903. 2514.44   1
  -3   7   0 154584. 2582.35   2
  -3  -7   0 157512. 2274.76   1
  -3  -7  -1 6200.09 278.418   1
  -3   7  -1 7192.46 478.143   2
  -3   7  -1 5958.14 401.912   1
  -3   7  -2 7539.18 512.107   2
   3  -7   2 7064.48 462.381   1
  -3   7  -2 6545.69 428.402   1
  -3   7  -3 28869.8 961.594   1
   3  -7   3 27400.1 945.884   1
  -3   7  -4 3376.37 330.500   1
   3  -7   4 3559.09 358.748   1
   3  -7   5 16402.8 761.432   1
   3   7   5 16349.8 888.529   2
  -3   7  -5 16711.7 748.648   1
   3  -7   6 4972.48 436.224   1
   3   7   6 5991.45 573.776   2
   3   7   7 8200.75 700.243   2
   3   7   8 14695.0 942.744   2
  -3  -8  10 3471.96 486.293   1
  -3  -8   9 465.007 224.270   1
  -3  -8   8 17384.4 935.683   1
  -3   8   8 14609.7 468.506   2
  -3  -8   7 6429.86 558.509   1
  -3  -8   6 18908.4 899.899   1
  -3  -8   5 8071.13 558.012   1
  -3  -8   4 61357.4 1543.15   1
  -3  -8   3 45938.2 1203.12   1
  -3   8   2 189.965 132.435   1
  -3  -8   2 171.752 125.814   1
  -3   8   1 47756.0 1258.49   1
  -3  -8   1 47523.1 1108.87   1
  -3  -8   0 52039.8 1093.95   1
  -3   8   0 52325.4 1311.35   1
  -3   8  -1 570.386 174.383   2
  -3   8  -1 310.544 138.122   1
  -3  -8  -1 301.524 84.9826   1
  -3   8  -2 46749.3 1358.55   2
   3  -8   2 47458.9 1281.00   1
  -3   8  -2 46078.8 1243.50   1
  -3   8  -3 30538.9 1048.53   1
   3  -8   3 29270.2 1027.33   1
  -3   8  -4 1635.50 259.500   1
   3  -8   4 1352.64 255.616   1
  -3   8  -5 6049.39 488.183   1
   3  -8   5 5667.94 475.405   1
   3   8   5 5462.44 531.860   2
   3  -8   6 12444.9 721.863   1
   3   8   6 12716.6 822.306   2
   3   8   7 764.682 307.927   2
   3   8   8 11373.5 832.676   2
  -3  -9  10 3717.00 502.342   1
  -3  -9   9 19557.1 1072.23   1
  -3  -9   8 25616.1 1164.23   1
  -3  -9   7 5660.01 534.971   1
  -3  -9   6 9667.22 662.608   1
  -3  -9   5 48107.9 1437.91   1
  -3  -9   4 13867.9 704.396   1
  -3  -9   3 46050.5 1248.20   1
  -3   9   3 45962.1 1292.03   1
  -3  -9   2 7642.88 465.065   1
  -3   9   2 8772.40 536.921   1
  -3   9   1 2876.22 310.944   1
  -3  -9   1 2693.38 266.780   1
  -3  -9   0 20816.3 672.901   1
  -3   9   0 20019.4 794.985   1
  -3   9  -1 84577.0 1885.53   2
  -3   9  -1 80749.2 1764.57   1
  -3  -9  -1 78852.3 1399.38   1
  -3  -9  -2 254.174 80.3244   1
   3  -9   2 238.253 138.732   1
  -3   9  -2 179.739 152.593   1
  -3   9  -3 14424.8 732.633   1
   3  -9   3 14430.4 745.100   1
   3  -9   4 5578.98 485.452   1
   3  -9   5 4223.63 441.490   1
   3   9   5 4528.71 500.382   2
   3  -9   6 107.334 153.810   1
   3   9   6 443.813 261.834   2
   3   9   7 6364.83 630.446   2
   3   9   8 4236.19 546.214   2
  -3 -10   9 617.893 264.387   1
  -3 -10   8 21346.3 1089.23   1
  -3 -10   7 15999.9 897.178   1
  -3 -10   6 440.177 183.808   1
  -3 -10   5 9314.61 637.000   1
  -3 -10   4 50084.3 1435.79   1
  -3  10   4 52500.0 1472.79   1
  -3 -10   3 10536.5 602.064   1
  -3  10   3 10947.0 655.721   1
  -3  10   2 20259.9 857.433   1
  -3 -10   2 21628.6 845.656   1
  -3 -10   1 614.868 158.944   1
  -3  10   1 725.374 202.946   1
  -3 -10   0 5947.46 371.579   1
  -3  10   0 5457.82 433.666   1
  -3 -10  -1 1266.67 175.293   1
  -3  10  -1 1353.14 239.870   1
  -3 -10  -2 39020.4 875.496   1
   3 -10   2 40543.9 1269.65   1
  -3  10  -2 39793.6 1240.81   1
   3 -10   3 5974.63 513.012   1
   3 -10   4 11886.9 735.831   1
   3 -10   5 520.692 215.520   1
   3 -10   6 43481.7 1481.34   1
   3  10   6 39827.9 1539.45   2
   3  10   7 269.341 262.135   2
  -3 -11   9 47634.5 1772.85   1
  -3 -11   8 3093.32 439.408   1
  -3 -11   7 5307.04 544.502   1
  -3 -11   6 5731.94 537.569   1
  -3 -11   5 5660.51 502.179   1
  -3 -11   4 327.437 174.848   1
  -3 -11   3 106461. 2276.17   1
  -3 -11   2 1423.73 236.918   1
  -3 -11   1 618.763 173.432   1
  -3 -11   0 713.403 168.951   1
  -3 -11  -1 43478.1 1061.79   1
  -3 -11  -2 8049.94 399.544   1
   3 -11   2 8753.88 610.376   1
   3 -11   3 32383.1 1219.16   1
   3 -11   4 1447.75 318.250   1
   3 -11   5 117.816 157.825   1
   3 -11   6 846.971 251.613   1
   3  11   6 486.431 225.712   2
   3  11   7 12792.6 907.544   2
  -3 -12   9 233.023 278.773   1
  -3 -12   8 15268.2 991.987   1
  -3 -12   7 280.169 206.976   1
  -3 -12   6 1340.77 289.682   1
  -3 -12   5 298.260 224.842   1
  -3 -12   4 43503.6 1436.65   1
  -3 -12   3 3596.59 378.936   1
  -3 -12   2 48686.0 1374.55   1
  -3 -12   1 15984.4 720.461   1
  -3 -12   0 19791.8 774.679   1
  -3 -12  -1 5926.50 397.097   1
   3 -12   2 57018.2 1634.15   1
  -3 -12  -2 51899.8 1190.33   1
   3 -12   3 1468.97 310.110   1
   3 -12   4-14.5394 192.765   1
   3 -12   5 468.641 236.568   1
   3 -12   6 13238.2 881.619   1
  -3 -13   8 961.110 302.065   1
  -3 -13   7 7889.27 685.095   1
  -3 -13   6 1896.62 352.916   1
  -3 -13   5 23708.3 1083.51   1
  -3 -13   4 18338.6 910.364   1
  -3 -13   3 21831.2 965.127   1
  -3 -13   2 9439.37 601.112   1
  -3 -13   1 94.8107 120.544   1
  -3 -13   0 4210.55 374.107   1
  -3 -13  -1 117583. 2163.23   1
   3  13   1 114938. 2133.20   1
   3 -13   2 493.145 218.840   1
   3 -13   3 6950.01 607.878   1
   3 -13   4 1315.53 324.100   1
   3 -13   5 2313.65 435.604   1
   3 -13   6 1204.93 336.803   1
  -3 -14   8 15805.8 1032.10   1
  -3 -14   7-51.4853 197.473   1
  -3 -14   6 19592.5 1048.02   1
  -3 -14   5-202.260 167.271   1
  -3 -14   4 79991.9 2086.81   1
  -3 -14   3 6693.71 564.146   1
  -3 -14   2 233.365 161.142   1
  -3 -14   1 23540.7 953.448   1
  -3 -14   0 1540.78 254.239   1
   3  14   0 1502.23 257.051   1
   3  14   1 946.760 210.664   1
  -3 -14  -1 406.539 173.393   1
   3 -14   2 74337.0 2064.11   1
   3  14   2 72801.1 1583.41   1
   3 -14   3 17495.5 983.159   1
   3 -14   4 2583.70 433.547   1
   3 -14   5 108.173 200.936   1
   3 -14   6 9200.10 813.270   1
  -3 -15   7 13342.5 934.432   1
  -3 -15   6 5226.36 573.151   1
  -3 -15   5 8244.14 686.234   1
  -3 -15   4 6897.77 594.431   1
  -3 -15   3 70429.6 1933.83   1
  -3 -15   2 1224.77 244.300   1
  -3 -15   1 3392.20 386.733   1
  -3 -15   0 17621.7 825.268   1
  -3 -15  -1 8477.65 552.840   1
   3  15   1 8330.81 534.942   1
   3 -15   2 6639.27 621.752   1
   3 -15   3 6225.13 618.761   1
   3 -15   4 670.051 268.677   1
   3 -15   5 2195.57 431.804   1
   3 -15   6 620.741 296.628   1
  -3 -16   7 5027.34 598.024   1
  -3 -16   6 1030.20 296.208   1
  -3 -16   5 2535.66 414.392   1
  -3 -16   4 33954.9 1382.17   1
  -3 -16   3 7380.32 600.743   1
  -3 -16   2 31276.9 1233.23   1
  -3 -16   1 97.6256 160.864   1
  -3 -16   0 1221.18 242.224   1
  -3 -16  -1 87.1859 149.734   1
   3 -16   3 2223.41 400.768   1
   3 -16   4 206.315 232.839   1
   3 -16   5 74.9233 211.221   1
  -3 -17   6 4163.60 554.504   1
  -3 -17   5 24744.5 1232.20   1
  -3 -17   4 2928.33 435.715   1
  -3 -17   3 34630.9 1374.63   1
  -3 -17   2 7758.92 635.059   1
  -3 -17   1 3998.76 442.423   1
  -3 -17   0 1071.97 265.188   1
  -3 -17  -1 13973.5 783.984   1
   3 -17   3 737.265 270.289   1
   3 -17   4 1007.94 311.403   1
  -3 -18   5 22257.8 1196.12   1
  -3 -18   4 17564.2 1054.36   1
  -3 -18   3 31174.7 1343.63   1
  -3 -18   2 969.054 262.640   1
  -3 -18   1-60.5499 185.668   1
  -3 -18   0 18486.7 967.845   1
  -3 -18  -1 882.581 223.976   1
  -3 -19   4 2966.74 479.259   1
  -3 -19   3 2521.31 407.640   1
  -3 -19   2 1737.80 343.329   1
  -3 -19   1 16104.7 949.709   1
  -3 -19   0 10737.6 759.517   1
  -3 -19  -1 18295.7 965.450   1
  -3 -20   3 4574.96 552.847   1
  -3 -20   2 6947.60 672.584   1
  -3 -20   1 2664.25 405.436   1
  -3 -20   0 4254.80 514.085   1
  -3 -20  -1 732.219 269.639   1
  -3 -21   2 6957.03 686.081   1
  -3 -21   1 9159.62 778.640   1
  -3 -21   0 6670.25 649.807   1
  -3 -22   1 855.049 283.063   1
  -3 -22   0 16959.2 1074.66   1
   4   0  -4 114753. 1613.06   2
   4   0  -3 35.6802 80.1731   2
   4   0  -2 59803.9 1199.82   2
   4   0  -1 303.957 152.185   2
   4   0   0 6395.98 418.438   2
  -4   0  -1-28.1619 67.6111   1
   4   0   1-53.0696 138.859   2
   4   0   2 120846. 2271.52   2
  -4   0  -2 108290. 1532.42   1
  -4   0  -3-10.6168 29.5741   1
   4   0   3 93.8188 173.933   2
   4   0   4-112.238 188.175   2
   4   0   5-20.5565 181.710   2
   4   0   6 4681.51 542.069   2
   4   0   7-249.405 269.557   2
   4   1  -5 7456.40 233.838   2
   4   1  -4 69133.1 1133.20   2
   4  -1  -3 32046.2 745.639   2
   4   1  -3 32280.4 777.177   2
   4  -1  -2 1056.60 171.340   2
   4   1  -2 1205.43 182.461   2
   4   1  -1 16630.4 632.782   2
   4  -1  -1 15284.7 599.256   2
   4  -1   0 8107.51 464.266   2
   4   1   0 7769.49 463.482   2
  -4   1  -1 93876.9 1526.99   1
   4  -1   1 95701.0 1923.02   2
   4   1   1 95623.7 1921.18   2
  -4  -1  -2 1080.79 88.2775   1
  -4   1  -2 1966.39 160.896   1
   4  -1   2 1682.09 256.572   2
   4   1   2 2128.81 289.798   2
  -4   1  -3 5098.16 240.867   1
   4  -1   3 4730.10 443.428   2
   4   1   3 4428.24 425.613   2
   4   1   4 4069.92 445.984   2
   4  -1   4 3538.55 421.778   2
   4  -1   5 1263.90 289.726   2
   4   1   5 1799.81 327.829   2
   4  -1   6 3250.47 448.367   2
   4   1   6 3376.40 464.698   2
   4   1   7 26442.9 1284.47   2
  -4  -2  11 415.097 231.960   1
   4   2  -5 2552.55 157.295   2
   4  -2  -3 7671.33 352.459   2
  -4   2   3 8059.83 365.305   2
   4  -2  -2 7649.54 385.201   2
  -4   2   2 7963.21 404.478   2
   4   2  -2 7467.95 406.033   2
   4  -2  -1 1240.95 186.736   2
  -4   2   1 1507.46 213.067   2
   4   2  -1 1593.78 217.217   2
   4  -2   0 342.492 144.005   2
   4   2   0 212.036 139.314   2
  -4   2   0 282.768 134.017   2
   4  -2   1 651.284 183.428   2
  -4   2  -1 620.170 121.885   1
   4   2   1 568.233 177.466   2
  -4   2  -1 420.898 150.463   2
   4  -2   2 47617.1 1341.14   2
   4   2   2 49188.2 1378.85   2
  -4   2  -2 48217.9 983.085   1
  -4   2  -2 51799.2 1459.13   2
  -4   2  -3 12106.0 430.242   1
   4  -2   3 11556.1 675.500   2
   4   2   3 11104.9 670.573   2
   4  -2   4 15749.8 839.895   2
   4   2   4 16728.0 848.701   2
   4   2   5 11868.2 776.709   2
   4  -2   5 11354.7 765.117   2
   4   2   6 12431.9 839.050   2
   4   2   7 504.012 241.965   2
  -4  -3  11 416.393 259.522   1
  -4   3   4 40499.5 813.103   2
  -4   3   3 140511. 2090.21   2
  -4   3   2 40494.8 989.760   2
   4  -3  -1 634.730 150.987   2
  -4   3   1 1073.15 197.557   2
   4  -3   0 18226.4 708.028   2
  -4   3   0 17037.5 616.518   1
  -4   3   0 17829.1 734.978   2
   4   3   0 17033.4 708.957   2
  -4   3  -1 56827.2 1184.20   1
  -4   3  -1 58046.4 1490.80   2
   4   3   1 58488.2 1459.69   2
   4  -3   1 55988.4 1413.51   2
   4   3   2 16340.8 786.325   2
  -4   3  -2 16269.5 558.072   1
  -4   3  -2 16088.7 799.000   2
   4  -3   2 15229.0 738.511   2
  -4   3  -3 43476.5 976.176   1
   4  -3   3 42433.5 1341.67   2
   4   3   3 41803.6 1341.00   2
  -4   3  -4 36.2497 80.0951   1
   4  -3   4 11.8757 194.004   2
   4   3   4 231.918 188.793   2
   4   3   5 48.9457 192.629   2
   4   3   6 102.967 199.255   2
   4   3   7 4545.39 557.396   2
  -4  -4  11-75.4857 216.389   1
  -4  -4  10 7286.28 658.817   1
  -4   4   5 17375.2 429.845   2
  -4   4   4 82581.1 1343.19   2
  -4   4   3 10480.5 439.525   2
  -4   4   2 17997.4 631.324   2
  -4   4   1 778.870 171.409   2
  -4   4   0 14781.4 611.309   1
  -4   4   0 14584.7 661.261   2
  -4  -4  -1 28140.2 560.596   1
  -4   4  -1 30272.4 1030.98   2
   4   4   1 27376.6 984.011   2
  -4   4  -1 27355.6 806.925   1
  -4   4  -2 54107.5 1183.89   1
   4   4   2 55665.9 1517.79   2
  -4   4  -3 29422.1 843.754   1
   4   4   3 30652.3 1139.44   2
  -4   4  -4 171.786 107.313   1
   4   4   4 555.739 262.197   2
   4   4   5 446.016 203.013   2
   4   4   6 3474.14 446.584   2
   4   4   7 1789.11 412.176   2
  -4  -5  11 826.391 310.977   1
  -4  -5  10 5729.81 616.793   1
  -4  -5   9 7182.08 632.039   1
   4   5  -8 1061.74 113.109   2
  -4   5   6 5202.06 181.569   2
  -4   5   5 40941.1 784.973   2
  -4   5   4 27598.2 704.708   2
  -4   5   3 104269. 1759.84   2
  -4   5   2 103288. 1843.20   2
  -4   5   1 11152.9 542.974   2
  -4   5   0 50717.2 1242.17   1
  -4   5   0 51399.8 1328.14   2
  -4  -5   0 54314.2 1028.95   1
  -4  -5  -1 23904.1 519.115   1
  -4   5  -1 27416.0 978.856   2
  -4   5  -1 24841.6 801.682   1
  -4   5  -2 4994.21 349.589   1
   4   5   2 4925.96 453.793   2
  -4   5  -3 10610.1 536.290   1
   4   5   3 9106.20 642.872   2
  -4   5  -4 4986.40 360.498   1
   4   5   4 4984.38 526.081   2
   4   5   5 10056.2 728.194   2
   4   5   6 4121.45 508.977   2
   4   5   7 8352.90 729.044   2
  -4  -6  10 12515.0 894.750   1
  -4  -6   9 43173.9 1614.68   1
  -4  -6   8 42512.7 1467.56   1
  -4  -6   7 8394.28 637.731   1
  -4   6   6 18044.7 460.131   2
  -4   6   5 11905.7 419.584   2
  -4   6   4 52542.0 1086.19   2
  -4   6   3 5383.67 343.326   2
  -4   6   2 78512.4 1569.84   2
  -4   6   1 10006.8 533.631   2
  -4   6   1 10004.9 538.899   1
  -4  -6   1 11405.3 484.132   1
  -4  -6   0 71929.7 1262.49   1
  -4   6   0 69386.9 1558.99   1
  -4   6   0 71318.5 1642.59   2
  -4  -6  -1 26624.7 580.257   1
  -4   6  -1 28863.8 1023.74   2
  -4   6  -1 27144.4 870.035   1
  -4   6  -2 7436.48 451.857   1
  -4   6  -3 29797.4 963.702   1
   4   6   3 27418.6 1118.01   2
  -4   6  -4 150.125 125.427   1
   4   6   4 273.552 213.456   2
   4   6   5 5571.49 564.909   2
   4   6   6 1010.08 327.809   2
   4   6   7-428.074 295.199   2
  -4  -7  10 20815.8 1149.78   1
  -4  -7   9 4931.88 558.497   1
  -4  -7   8 5630.43 555.911   1
  -4   7   7 727.629 97.2496   2
  -4  -7   7 1122.90 270.604   1
  -4   7   6 4702.92 262.255   2
  -4  -7   6 4779.39 450.131   1
  -4   7   5 14995.1 521.916   2
  -4  -7   5 15726.6 771.040   1
  -4   7   4 25616.9 753.403   2
  -4  -7   4 24519.2 924.034   1
  -4   7   3 61298.0 1330.85   2
  -4  -7   3 61620.0 1447.53   1
  -4  -7   2 54993.3 1294.93   1
  -4   7   2 55626.9 1303.25   2
  -4  -7   1 46016.8 1083.14   1
  -4   7   1 47453.9 1295.64   1
  -4   7   1 46670.6 1242.73   2
  -4   7   0 31.2812 103.303   1
  -4   7   0 90.9570 146.230   2
  -4  -7   0 92.1876 74.6877   1
  -4  -7  -1 6813.46 287.722   1
  -4   7  -1 7225.96 468.193   1
  -4   7  -2 805.181 185.134   1
  -4   7  -3 8737.75 534.383   1
   4   7   3 8218.68 648.672   2
  -4   7  -4 7145.08 490.330   1
   4   7   4 7404.48 628.201   2
   4   7   5 14880.2 906.490   2
   4   7   6 10798.0 810.804   2
  -4  -8  10 1346.15 342.420   1
  -4  -8   9 488.249 270.204   1
  -4  -8   8 10739.9 773.894   1
  -4  -8   7 959.079 271.705   1
  -4  -8   6 42019.2 1410.74   1
  -4  -8   5 36589.6 1248.15   1
  -4  -8   4 20347.5 872.088   1
  -4  -8   3 2764.11 307.633   1
  -4  -8   2 25392.0 856.164   1
  -4   8   2 26820.1 896.436   2
  -4   8   2 26412.7 970.567   1
  -4   8   1 19487.3 815.703   1
  -4  -8   1 18126.1 659.240   1
  -4   8   1 18691.0 771.594   2
  -4   8   0 67599.9 1650.91   2
  -4  -8   0 69513.8 1329.87   1
  -4   8   0 63020.3 1559.03   1
  -4  -8  -1 2356.49 184.077   1
  -4   8  -1 2340.94 293.827   1
  -4   8  -2 16468.0 743.477   1
  -4   8  -3 9276.16 583.559   1
  -4   8  -4 7916.52 528.810   1
   4   8   4 7682.20 648.912   2
   4   8   5 285.758 245.809   2
   4   8   6 2353.66 428.518   2
  -4  -9  10 6795.31 701.576   1
  -4  -9   9 11953.2 866.928   1
  -4  -9   8 301.207 213.046   1
  -4  -9   7 34316.8 1338.67   1
  -4  -9   6 249.034 204.880   1
  -4  -9   5 15384.4 821.876   1
  -4  -9   4 10047.5 617.743   1
  -4  -9   3 11637.8 621.537   1
  -4  -9   2 19366.9 756.898   1
  -4   9   2 20190.8 805.469   2
  -4   9   2 20559.2 893.903   1
  -4   9   1 1491.08 259.298   2
  -4  -9   1 1617.31 216.195   1
  -4   9   1 1525.08 255.410   1
  -4  -9   0 3500.93 274.697   1
  -4   9   0 3119.59 337.236   1
  -4   9  -1 5197.24 429.774   1
  -4  -9  -1 5396.98 299.984   1
  -4   9  -2 3165.52 346.314   1
   4   9   4 19361.9 1055.47   2
   4   9   5 11504.0 830.355   2
   4   9   6 7808.47 714.531   2
  -4 -10   9 503.176 282.211   1
  -4 -10   8 2119.77 393.187   1
  -4 -10   7 4364.97 507.055   1
  -4 -10   6 43869.6 1494.87   1
  -4 -10   5 5874.57 514.034   1
  -4 -10   4 418.659 153.845   1
  -4 -10   3 17828.9 791.178   1
  -4 -10   2 29679.7 990.737   1
  -4 -10   1 10911.6 556.840   1
  -4 -10   0 44781.4 1094.27   1
  -4 -10  -1 63171.0 1223.59   1
   4  10   5 148.245 264.130   2
   4  10   6 5160.68 602.564   2
  -4 -11   9 3336.98 482.427   1
  -4 -11   8 182.094 254.818   1
  -4 -11   7 38730.0 1483.13   1
  -4 -11   6 701.067 264.455   1
  -4 -11   5 5944.36 528.733   1
  -4 -11   4 1530.72 274.757   1
  -4 -11   3-13.9887 150.095   1
  -4 -11   2 4646.73 428.912   1
  -4 -11   1 178373. 2919.68   1
  -4 -11   0 143.307 91.4915   1
  -4 -11  -1 1811.11 203.857   1
   4  11   5 24138.3 1247.59   2
  -4 -12   8 14.6682 186.821   1
  -4 -12   7 5339.52 563.153   1
  -4 -12   6 60222.3 1856.68   1
  -4 -12   5 826.283 247.171   1
  -4 -12   4 1528.01 295.127   1
  -4 -12   3 10577.7 686.921   1
  -4 -12   2 12307.2 667.177   1
  -4 -12   1 454.189 154.295   1
  -4 -12   0 4940.21 376.165   1
  -4 -12  -1 1484.75 200.234   1
  -4 -13   8 1624.76 381.483   1
  -4 -13   7 41331.7 1611.29   1
  -4 -13   6 1759.28 354.598   1
  -4 -13   5 50181.2 1661.39   1
  -4 -13   4 3408.98 428.740   1
  -4 -13   3 7204.94 559.417   1
  -4 -13   2 25.7764 148.897   1
  -4 -13   1 51830.5 1416.23   1
  -4 -13   0 78.6511 120.946   1
  -4 -13  -1 4948.99 374.386   1
  -4 -14   7 1627.81 422.520   1
  -4 -14   6 74951.6 2251.97   1
  -4 -14   5 608.643 244.810   1
  -4 -14   4 379.723 208.961   1
  -4 -14   3 390.349 180.294   1
  -4 -14   2 19144.7 895.417   1
  -4 -14   1 198.803 162.163   1
  -4 -14   0 20785.6 832.714   1
  -4 -14  -1 16.2379 110.332   1
  -4 -15   7 23066.3 1242.95   1
  -4 -15   6 1974.87 397.283   1
  -4 -15   5 34103.2 1423.24   1
  -4 -15   4 14425.2 881.638   1
  -4 -15   3 1063.05 281.149   1
  -4 -15   2 2364.57 350.301   1
  -4 -15   1 59948.2 1654.04   1
  -4 -15   0 1287.19 239.496   1
  -4 -15  -1 107.440 136.836   1
  -4 -16   6 33283.1 1471.88   1
  -4 -16   5 1298.71 349.011   1
  -4 -16   4 867.106 285.053   1
  -4 -16   3 1546.93 306.223   1
  -4 -16   2 39426.2 1394.03   1
  -4 -16   1 51.4433 160.292   1
  -4 -16   0 30831.5 1137.70   1
  -4 -16  -1 10105.8 616.936   1
  -4 -17   6-392.152 305.285   1
  -4 -17   5 9701.79 774.097   1
  -4 -17   4 9096.24 730.834   1
  -4 -17   3 726.656 257.552   1
  -4 -17   2 12096.9 792.057   1
  -4 -17   1 28964.8 1160.53   1
  -4 -17   0 6519.81 551.128   1
  -4 -17  -1 4153.01 421.968   1
  -4 -18   5 469.514 224.397   1
  -4 -18   4 15469.7 974.701   1
  -4 -18   3-62.6616 218.100   1
  -4 -18   2 19546.7 1042.24   1
  -4 -18   1 914.586 256.374   1
  -4 -18   0 18865.9 954.270   1
  -4 -19   4 154.436 192.403   1
  -4 -19   3 1001.29 306.234   1
  -4 -19   2 3701.82 463.943   1
  -4 -19   1 1132.39 300.790   1
  -4 -19   0 1014.80 268.702   1
  -4 -20   3 212.256 198.520   1
  -4 -20   2 2016.21 369.217   1
  -4 -20   1 2771.45 445.686   1
  -4 -20   0 4241.27 511.177   1
  -4 -21   2 5737.59 624.161   1
  -4 -21   1 2483.55 430.794   1
   5   0  -5-57.3514 71.3549   2
   5   0  -4 5492.33 318.564   2
   5   0  -3-63.0352 106.048   2
   5   0  -2 27826.5 863.317   2
   5   0  -1 40.4729 129.153   2
   5   0   0 108449. 2152.87   2
  -5   0  -1 17.2676 67.4151   1
   5   0   1 100.616 171.920   2
  -5   0  -2 2930.98 190.463   1
   5   0   2 3931.16 434.325   2
   5   0   3 157.284 211.614   2
   5   0   4 19038.3 1009.90   2
   5   0   5-227.704 276.474   2
   5   0   6 6149.12 645.151   2
   5   1  -6 773.404 89.3393   2
   5   1  -5 106417. 1609.29   2
   5  -1  -4 36818.1 867.599   2
   5   1  -4 37949.0 894.279   2
   5  -1  -3 15381.8 578.255   2
   5   1  -3 14941.8 588.084   2
   5  -1  -2 6120.35 398.404   2
   5   1  -2 5713.24 390.444   2
   5  -1  -1 108068. 2055.10   2
   5   1  -1 104675. 2036.33   2
   5  -1   0 2100.27 277.706   2
   5   1   0 2464.67 310.909   2
  -5   1  -1 45505.6 1018.85   1
  -5  -1  -1 44305.8 928.977   1
   5  -1   1 47907.5 1385.32   2
   5   1   1 49875.9 1416.17   2
  -5  -1  -2 145.138 49.6578   1
  -5   1  -2 186.783 80.2807   1
   5  -1   2 330.970 210.916   2
   5   1   2 491.431 213.133   2
  -5   1  -3 49.6859 52.9718   1
   5  -1   3 92.8686 205.986   2
   5   1   3 69.7267 189.539   2
   5  -1   4 558.029 236.720   2
   5   1   4 773.257 261.831   2
   5  -1   5 18538.0 1062.47   2
   5   1   5 20110.3 1080.90   2
   5  -1   6 175.392 239.847   2
   5   1   6 41.5620 227.048   2
   5   2  -6 16492.0 421.467   2
   5   2  -5 5929.72 305.288   2
   5   2  -4 37070.8 920.294   2
   5  -2  -3 10767.4 487.488   2
   5   2  -3 10831.2 509.053   2
   5  -2  -2 4058.68 329.278   2
   5   2  -2 4601.44 363.197   2
   5  -2  -1 17102.9 715.702   2
   5   2  -1 17909.6 748.504   2
   5  -2   0 57811.9 1480.98   2
   5   2   0 59454.1 1520.39   2
  -5   2  -1 2529.97 237.144   1
  -5  -2  -1 2258.10 173.011   1
   5  -2   1 2271.35 324.018   2
   5   2   1 2465.75 344.029   2
  -5   2  -2 2571.28 218.687   1
   5  -2   2 2489.22 355.644   2
   5   2   2 2400.43 341.540   2
   5  -2   3 1655.18 326.626   2
   5   2   3 2062.02 352.126   2
  -5   2  -3 1503.54 158.539   1
   5  -2   4 25462.6 1178.05   2
   5   2   4 23899.1 1138.40   2
   5  -2   5-349.099 291.422   2
   5   2   5 99.3763 241.333   2
   5   2   6 8071.27 741.071   2
   5   3  -7 8844.73 222.521   2
   5   3  -6 4379.43 238.489   2
   5   3  -5 146307. 2179.36   2
   5   3  -4-121.178 111.209   2
  -5   3   3 2326.57 244.732   2
   5   3  -3 2519.41 261.649   2
   5  -3  -2 339.387 145.792   2
  -5   3   2 104.167 125.195   2
   5   3  -2 11.0791 148.522   2
   5  -3  -1 39447.3 1149.48   2
   5   3  -1 42193.1 1207.02   2
  -5   3   1 41855.1 1229.57   2
   5  -3   0-135.145 184.433   2
   5   3   0-249.856 160.626   2
  -5   3   0-63.9580 189.141   2
  -5   3   0-57.7092 89.4125   1
   5  -3   1 12341.2 686.257   2
   5   3   1 13121.4 730.863   2
  -5   3  -1 11580.9 519.705   1
  -5   3  -2 465.346 116.005   1
   5  -3   2 741.696 228.042   2
   5   3   2 285.913 180.449   2
   5  -3   3-129.372 215.486   2
   5   3   3-292.834 232.516   2
  -5   3  -3 215.758 103.269   1
   5   3   4 7149.71 629.729   2
   5   3   5 30749.5 1353.08   2
   5   3   6 3019.71 502.916   2
   5   4  -7 3193.31 188.032   2
  -5   4   4 35062.3 910.371   2
  -5   4   3 187.413 127.010   2
  -5   4   2 17285.9 725.512   2
  -5   4   1 5123.70 425.508   2
   5   4  -1 4358.54 398.005   2
  -5   4   0 57660.0 1381.08   1
  -5   4   0 62281.6 1613.84   2
   5   4   0 59286.8 1557.89   2
   5   4   1 4308.22 436.324   2
  -5   4  -1 4306.13 337.702   1
  -5  -4  -1 4717.15 225.302   1
  -5   4  -2 1140.59 186.938   1
   5   4   2 1223.04 301.818   2
  -5   4  -3 2483.58 253.389   1
   5   4   3 1543.87 321.461   2
   5   4   4 12712.9 834.573   2
   5   4   5 714.662 306.250   2
  -5  -5  10 9004.63 763.668   1
  -5   5   5 80649.3 1423.71   2
  -5   5   4 13148.5 544.474   2
  -5   5   3 25605.5 838.031   2
  -5   5   2 1706.41 236.159   2
  -5   5   1 35297.1 1139.10   2
  -5   5   0 1201.88 211.088   1
  -5  -5   0 1208.23 147.606   1
   5   5   0 1190.91 242.886   2
  -5  -5  -1 15000.9 411.285   1
   5   5   1 17198.6 857.075   2
  -5   5  -1 16754.7 684.327   1
  -5   5  -2 4393.05 348.069   1
   5   5   2 5074.41 495.208   2
  -5   5  -3 1131.07 207.893   1
   5   5   3 938.505 312.574   2
   5   5   4 8451.62 698.449   2
   5   5   5 1068.86 313.550   2
  -5  -6  10 1879.07 421.757   1
  -5  -6   9 1892.20 386.547   1
  -5   6   6 23878.7 612.345   2
  -5   6   5 11781.3 476.224   2
  -5   6   4 29084.2 852.352   2
  -5   6   3 744.914 172.441   2
  -5   6   2 66909.4 1562.33   2
  -5   6   1 3348.56 358.791   2
  -5   6   1 3049.93 330.540   1
  -5  -6   1 3220.36 266.375   1
  -5  -6   0 91078.4 1535.52   1
  -5   6   0 87726.8 1900.38   1
   5   6   1 25955.1 1085.46   2
  -5   6  -1 23322.5 848.013   1
  -5   6  -2 10680.0 573.083   1
   5   6   2 10967.7 725.320   2
  -5   6  -3 110.070 124.995   1
   5   6   3 596.825 270.031   2
   5   6   4 1213.75 348.349   2
   5   6   5-180.475 230.469   2
  -5  -7  10 8503.85 770.846   1
  -5  -7   9 18016.5 1081.74   1
  -5  -7   8 6979.27 623.451   1
  -5  -7   7 22937.7 1102.00   1
  -5   7   6 6827.15 336.608   2
  -5   7   5 195.816 111.240   2
  -5   7   4 1374.56 210.035   2
  -5   7   3 57794.3 1395.59   2
  -5  -7   3 58521.7 1485.55   1
  -5   7   2 40072.0 1169.88   2
  -5  -7   2 38996.7 1094.51   1
  -5  -7   1 1045.93 180.817   1
  -5   7   1 835.484 209.629   1
  -5   7   1 801.495 235.694   2
  -5   7   0 11512.8 635.811   1
  -5  -7   0 12113.6 476.281   1
  -5  -7  -1 4250.87 222.418   1
  -5   7  -1 5293.14 426.354   1
  -5   7  -2 19831.4 823.472   1
   5   7   2 21496.1 1032.67   2
  -5   7  -3 11840.8 653.491   1
   5   7   3 11206.8 793.310   2
   5   7   4 10620.6 802.072   2
   5   7   5 8108.49 724.976   2
  -5  -8   9 1241.87 346.392   1
  -5  -8   8 51223.4 1791.98   1
  -5  -8   7 15636.3 938.623   1
  -5   8   6 13551.9 524.767   2
  -5  -8   6 12260.9 762.897   1
  -5  -8   5 391.339 184.883   1
  -5   8   5 451.157 145.773   2
  -5   8   4 23757.2 817.026   2
  -5  -8   4 22344.7 947.429   1
  -5  -8   3 3555.99 368.587   1
  -5   8   3 3263.64 330.983   2
  -5  -8   2 56549.8 1396.94   1
  -5   8   2 56881.0 1486.38   2
  -5  -8   1 22.5738 93.2921   1
  -5  -8   0 54.5973 87.3331   1
  -5  -8  -1 6853.90 300.315   1
   5   8   3 5474.80 590.785   2
   5   8   4 4115.68 527.048   2
   5   8   5 386.303 249.191   2
  -5  -9   9 9092.10 783.295   1
  -5  -9   8-39.3383 196.189   1
  -5  -9   7 38810.6 1482.94   1
  -5  -9   6 4736.39 491.805   1
  -5   9   6 4550.26 328.617   2
  -5  -9   5 3555.38 427.619   1
  -5   9   5 4164.32 340.053   2
  -5  -9   4 1268.53 267.810   1
  -5   9   4 1371.80 213.547   2
  -5  -9   3 20505.5 864.398   1
  -5   9   3 20864.3 833.792   2
  -5  -9   2 13094.6 642.295   1
  -5  -9   1 6188.78 402.252   1
  -5  -9   0 18268.1 641.602   1
  -5  -9  -1 11310.4 416.283   1
   5   9   3 34915.5 1439.86   2
   5   9   4 98.9636 235.527   2
  -5 -10   9 14145.2 978.262   1
  -5 -10   8 51890.8 1839.27   1
  -5 -10   7 8013.26 675.399   1
  -5 -10   6 15901.3 900.967   1
  -5  10   6 15041.7 628.392   2
  -5 -10   5 15135.2 838.281   1
  -5  10   5 15342.2 669.550   2
  -5 -10   4 10987.9 691.676   1
  -5  10   4 10420.9 573.119   2
  -5  10   3 289.995 165.250   2
  -5 -10   3 231.466 132.683   1
  -5 -10   2 4948.34 406.529   1
  -5 -10   1 26452.2 914.727   1
  -5 -10   0 4265.50 319.875   1
  -5 -10  -1 575.493 117.156   1
   5  10   4 645.158 288.613   2
  -5 -11   8 43.1578 216.505   1
  -5 -11   7 38755.9 1521.49   1
  -5  11   6-320.693 199.661   2
  -5 -11   6 31.7880 183.279   1
  -5  11   5 2173.86 266.749   2
  -5 -11   5 2475.15 386.199   1
  -5 -11   4 32484.2 1219.74   1
  -5  11   4 31884.1 1081.72   2
  -5 -11   3 110343. 2334.36   1
  -5 -11   2 2679.72 323.374   1
  -5 -11   1 6199.93 437.167   1
  -5 -11   0 517.469 136.430   1
  -5 -11  -1 2489.29 225.093   1
   5  11   4-124.151 304.845   2
  -5 -12   8 11993.7 900.788   1
  -5 -12   7 6234.87 621.818   1
  -5 -12   6 87.0233 198.990   1
  -5 -12   5 1296.89 316.193   1
  -5 -12   4 12037.2 738.031   1
  -5 -12   3-264.236 208.410   1
  -5 -12   2 41310.2 1308.58   1
  -5 -12   1 4197.83 377.243   1
  -5 -12   0 1460.34 217.720   1
  -5 -12  -1 625.414 143.860   1
  -5 -13   8 202.327 237.381   1
  -5 -13   7 16186.5 1017.94   1
  -5 -13   6 1422.07 322.281   1
  -5 -13   5 5302.49 547.644   1
  -5 -13   4 3267.46 422.479   1
  -5 -13   3 111787. 2512.33   1
  -5 -13   2 650.512 207.587   1
  -5 -13   1 15467.9 742.919   1
  -5 -13   0 242.635 128.483   1
  -5 -14   7 264.288 233.790   1
  -5 -14   6 905.817 293.644   1
  -5 -14   5 4948.58 560.840   1
  -5 -14   4 20709.1 1065.08   1
  -5 -14   3 884.368 272.766   1
  -5 -14   2 29075.8 1129.06   1
  -5 -14   1 8752.88 576.758   1
  -5 -14   0 3472.81 352.037   1
  -5 -15   7 22107.7 1322.70   1
  -5 -15   6 1103.29 322.874   1
  -5 -15   5 8125.11 705.120   1
  -5 -15   4 190.688 191.585   1
  -5 -15   3 23413.7 1094.19   1
  -5 -15   2 9180.07 643.114   1
  -5 -15   1 2917.25 351.355   1
  -5 -15   0 4040.60 393.500   1
  -5 -16   6 219.931 219.677   1
  -5 -16   5 3066.78 472.449   1
  -5 -16   4 7334.92 647.891   1
  -5 -16   3 169.567 218.294   1
  -5 -16   2 35215.5 1320.38   1
  -5 -16   1 3513.33 405.669   1
  -5 -16   0 13050.6 714.478   1
  -5 -17   5 3836.17 524.536   1
  -5 -17   4 9771.76 762.403   1
  -5 -17   3 5922.57 585.768   1
  -5 -17   2 2487.28 382.588   1
  -5 -17   1 298.713 198.197   1
  -5 -18   4 11316.5 850.604   1
  -5 -18   3 117.708 203.416   1
  -5 -18   2 15963.0 941.390   1
  -5 -18   1 2403.19 357.093   1
  -5 -19   4 6610.34 666.858   1
  -5 -19   3 2537.94 418.628   1
  -5 -19   2 3357.44 463.611   1
  -5 -20   3 197.408 225.051   1
  -5 -20   2 2303.38 415.930   1
   6   0  -5-111.342 108.613   2
   6   0  -4 22199.6 759.010   2
   6   0  -3-1.72371 129.183   2
   6   0  -2 3368.99 355.780   2
   6   0  -1-100.544 177.298   2
   6   0   0 1631.69 287.782   2
  -6   0  -1 68.4552 78.1397   1
   6   0   1-69.7254 187.104   2
   6   0   2 10533.9 741.647   2
   6   0   3-59.9295 220.526   2
   6   0   4 6414.98 640.775   2
   6   1  -6 413.410 95.6226   2
   6   1  -5 13119.1 530.411   2
   6  -1  -4 71.4558 114.406   2
   6   1  -4 291.474 146.171   2
   6  -1  -3 69933.8 1554.43   2
   6   1  -3 70764.1 1565.41   2
   6  -1  -2 6075.34 450.687   2
   6   1  -2 6458.14 473.842   2
   6  -1  -1 6325.53 492.946   2
   6   1  -1 5978.61 474.997   2
   6  -1   0 1844.09 315.825   2
   6   1   0 1931.42 316.124   2
  -6   1  -1 3571.06 286.989   1
  -6  -1  -1 3667.77 252.906   1
   6  -1   1 4719.67 468.729   2
   6   1   1 4042.07 444.648   2
   6  -1   2 2111.34 365.693   2
   6   1   2 2663.12 403.268   2
   6  -1   3 23260.0 1143.60   2
   6   1   3 24308.9 1181.96   2
   6  -1   4 983.205 292.007   2
   6   1   4 2083.30 432.438   2
   6   2  -6 12245.2 458.243   2
   6   2  -5-173.158 105.932   2
   6   2  -4 566.688 158.861   2
   6  -2  -3 406.620 145.797   2
   6   2  -3 751.328 193.873   2
   6  -2  -2 38789.6 1172.93   2
   6   2  -2 39859.2 1206.36   2
   6  -2  -1 9262.62 593.637   2
   6   2  -1 10139.7 624.097   2
  -6   2   0 112.663 104.568   1
   6  -2   0 133.522 167.612   2
   6   2   0 413.724 237.337   2
  -6  -2  -1 7869.09 353.727   1
   6  -2   1 10975.2 709.407   2
   6   2   1 10730.4 716.041   2
  -6   2  -1 9698.13 486.370   1
   6  -2   2 3646.34 462.072   2
   6   2   2 3553.99 457.100   2
   6  -2   3 1709.86 351.312   2
   6   2   3 1805.96 365.081   2
   6  -2   4 10610.3 824.526   2
   6   2   4 10441.2 808.511   2
   6   3  -7 30603.2 665.969   2
   6   3  -6 112510. 1823.42   2
   6   3  -5 962.609 176.625   2
   6   3  -4 358.215 150.927   2
   6   3  -3 54373.2 1390.47   2
   6   3  -2 3982.33 389.147   2
   6  -3  -2 3695.61 355.859   2
   6  -3  -1 24292.3 974.196   2
   6   3  -1 24050.0 984.793   2
   6  -3   0 1757.45 305.228   2
  -6   3   0 1019.31 203.145   1
   6   3   0 1770.61 328.088   2
  -6   3  -1 207.251 109.687   1
  -6  -3  -1 396.548 94.9218   1
   6  -3   1 201.468 194.495   2
   6   3   1 598.222 234.739   2
   6  -3   2 36178.9 1396.15   2
   6   3   2 36797.4 1406.78   2
   6  -3   3 16898.5 989.081   2
   6   3   3 17542.7 1005.90   2
   6   3   4 400.244 274.510   2
   6   4  -7 15184.0 489.828   2
   6   4  -6 3081.02 267.739   2
   6   4  -5 1009.94 184.913   2
   6   4  -4 41527.9 1152.77   2
   6   4  -3 53237.4 1397.34   2
  -6   4   3 54665.2 1418.46   2
   6   4  -2 70132.6 1727.85   2
  -6   4   2 70831.6 1737.09   2
   6   4  -1 57903.3 1603.07   2
  -6   4   0 21540.3 851.458   1
   6   4   0 24698.8 1056.02   2
  -6  -4  -1 8774.11 321.570   1
   6   4   1 11018.0 733.285   2
  -6   4  -1 9893.18 531.615   1
   6   4   2 20328.8 1042.75   2
   6   4   3 588.576 277.802   2
   6   4   4 1307.26 338.720   2
   6   5  -7 15717.4 552.147   2
  -6   5   5 28107.3 872.981   2
  -6   5   4 20922.9 795.579   2
  -6   5   3 17601.4 784.353   2
   6   5  -2 546.930 207.191   2
  -6   5   1 740.816 191.276   1
   6   5  -1 839.234 239.326   2
  -6   5   0 916.076 202.205   1
  -6  -5   0 836.840 142.421   1
   6   5   0 750.002 243.863   2
   6   5   1 13345.0 822.561   2
  -6   5  -1 10656.2 572.538   1
   6   5   2 5767.94 587.340   2
   6   5   3 9450.69 758.620   2
   6   5   4 9897.52 804.090   2
  -6   6   5-31.2803 120.985   2
  -6   6   4 28148.3 959.840   2
  -6   6   3 843.177 212.699   2
   6   6  -1 27353.5 1120.95   2
  -6  -6   1 28149.3 863.244   1
  -6   6   0 7313.59 523.175   1
  -6  -6   0 7915.63 387.550   1
   6   6   0 7774.61 624.358   2
   6   6   1 30438.9 1248.25   2
  -6   6  -1 26165.7 940.431   1
   6   6   2 10962.1 794.243   2
   6   6   3 4804.86 567.115   2
  -6  -7   9 2142.18 425.697   1
  -6   7   6 7838.69 422.625   2
  -6   7   5 2876.05 291.684   2
  -6   7   4 108552. 2130.62   2
  -6   7   3 10947.7 637.420   2
  -6  -7   2 2029.55 259.531   1
  -6  -7   1 36434.7 1015.95   1
  -6  -7   0 24223.0 715.086   1
   6   7   0 26834.6 1167.36   2
   6   7   1 3584.49 470.916   2
   6   7   2 3875.55 509.947   2
   6   7   3 2649.79 455.307   2
  -6  -8   9 6234.92 677.937   1
  -6  -8   8 10971.2 820.382   1
  -6  -8   7 2259.16 381.738   1
  -6   8   6 44500.4 1109.61   2
  -6  -8   6 41232.8 1494.13   1
  -6  -8   5-91.4403 149.990   1
  -6   8   5 124.976 131.075   2
  -6   8   4 11272.2 623.676   2
  -6  -8   4 10782.4 667.544   1
  -6  -8   3 29504.8 1071.61   1
  -6  -8   2 1041.18 206.733   1
  -6  -8   1 19156.4 727.526   1
  -6  -8   0 5663.30 341.755   1
   6   8   1 2220.04 389.273   2
   6   8   2 8549.52 729.764   2
   6   8   3 2306.20 434.158   2
  -6  -9   9 23315.5 1291.83   1
  -6  -9   8 602.533 255.466   1
  -6  -9   7 25617.4 1254.40   1
  -6  -9   6 7986.47 660.959   1
  -6  -9   5 28532.8 1216.68   1
  -6   9   5 30284.2 990.362   2
  -6  -9   4 17472.3 872.207   1
  -6   9   4 17261.7 784.978   2
  -6  -9   3 1773.98 290.484   1
  -6  -9   2 700.468 185.939   1
  -6  -9   1 2330.81 263.501   1
  -6  -9   0 5701.38 355.240   1
   6   9   2 2174.09 408.704   2
   6   9   3 3264.63 519.886   2
  -6 -10   8 1033.08 343.185   1
  -6 -10   7 9107.54 774.071   1
  -6 -10   6 47566.7 1652.48   1
  -6 -10   5 1981.17 349.627   1
  -6  10   5 1759.29 265.498   2
  -6 -10   4 13006.1 763.258   1
  -6 -10   3 751.135 205.978   1
  -6 -10   2 3408.43 353.214   1
  -6 -10   1 854.122 185.525   1
  -6 -10   0 3789.72 304.747   1
   6  10   2 9972.99 812.846   2
  -6 -11   8-7.95141 208.982   1
  -6 -11   7 3745.09 523.956   1
  -6 -11   6 1581.12 328.753   1
  -6 -11   5 24439.5 1139.67   1
  -6 -11   4 3016.78 408.786   1
  -6 -11   3 6136.06 514.163   1
  -6 -11   2 3553.77 369.453   1
  -6 -11   1 36576.9 1115.59   1
  -6 -11   0 2774.24 275.529   1
  -6 -12   7 1824.92 404.232   1
  -6 -12   6 14994.4 962.957   1
  -6 -12   5 97.2056 191.775   1
  -6 -12   4 15277.0 880.484   1
  -6 -12   3 54.9112 143.125   1
  -6 -12   2 1594.55 293.770   1
  -6 -12   1-82.0279 142.432   1
  -6 -13   7-128.633 215.381   1
  -6 -13   6 26.1580 208.223   1
  -6 -13   5 36904.5 1464.81   1
  -6 -13   4 2368.08 374.992   1
  -6 -13   3 4505.05 469.931   1
  -6 -13   2 1963.12 308.889   1
  -6 -13   1 22484.5 909.003   1
  -6 -14   7 227.737 218.922   1
  -6 -14   6 10593.4 820.827   1
  -6 -14   5 3310.57 462.812   1
  -6 -14   4 23058.8 1162.03   1
  -6 -14   3 743.939 237.997   1
  -6 -14   2 87.8279 154.548   1
  -6 -14   1 798.700 194.449   1
  -6 -15   6 15883.3 1040.74   1
  -6 -15   5 30402.2 1468.55   1
  -6 -15   4 2844.20 435.366   1
  -6 -15   3 569.600 227.766   1
  -6 -15   2 532.671 210.883   1
  -6 -16   5 418.321 287.884   1
  -6 -16   4 8292.92 704.126   1
  -6 -16   3 98.4449 217.430   1
  -6 -16   2 990.675 260.628   1
  -6 -17   5 39797.2 1660.22   1
  -6 -17   4 8454.86 731.401   1
  -6 -17   3 33.4101 202.799   1
  -6 -17   2 523.562 221.473   1
  -6 -18   4 10304.4 825.152   1
  -6 -18   3 5478.76 590.211   1
  -6 -19   3 1795.13 420.779   1
   7   0  -5-145.932 144.754   2
   7   0  -4 98337.6 2004.87   2
   7   0  -3 168.188 173.760   2
   7   0  -2 25047.7 1024.35   2
   7   0  -1 63.0125 211.771   2
   7   0   0 9596.88 704.207   2
   7   0   1-229.667 261.647   2
   7   0   2 3280.55 490.668   2
   7   1  -6 1895.88 225.133   2
   7  -1  -5 87958.1 1783.49   2
   7   1  -5 89273.2 1787.03   2
   7   1  -4 3856.92 371.482   2
   7  -1  -4 3348.39 338.558   2
   7  -1  -3 41572.5 1277.83   2
   7   1  -3 42782.4 1302.20   2
   7  -1  -2 9683.85 634.777   2
   7   1  -2 9566.28 633.153   2
   7  -1  -1 376.361 213.785   2
   7   1  -1 101.003 183.140   2
   7  -1   0 1566.89 345.056   2
   7   1   0 1621.41 340.257   2
  -7   1   0 1678.14 251.282   1
   7  -1   1 19226.7 1036.08   2
   7   1   1 18964.1 1036.78   2
   7  -1   2 1290.12 313.997   2
   7   1   2 1400.10 337.563   2
   7   2  -7 3348.22 241.493   2
   7   2  -6 9894.53 492.457   2
   7   2  -5 11306.8 570.869   2
   7   2  -4 24221.8 906.316   2
   7   2  -3 3934.34 405.967   2
   7  -2  -3 4035.46 397.836   2
   7  -2  -2 4797.51 451.546   2
   7   2  -2 5267.76 487.184   2
   7  -2  -1 13543.3 785.550   2
   7   2  -1 13128.4 779.825   2
  -7   2   0 59476.9 1493.80   1
   7  -2   0 65312.9 1872.98   2
   7   2   0 64475.3 1864.02   2
   7  -2   1-74.3406 265.188   2
   7   2   1 296.553 243.417   2
   7  -2   2-15.2921 242.341   2
   7   2   2 388.254 256.433   2
   7   3  -7 346.925 118.407   2
   7   3  -6-10.8740 122.101   2
   7   3  -5 46691.1 1248.67   2
   7   3  -4 20660.8 851.305   2
   7   3  -3 106.734 153.240   2
   7  -3  -2 4957.62 463.764   2
   7   3  -2 5017.98 472.911   2
   7  -3  -1 411.824 222.092   2
   7   3  -1 185.423 197.825   2
  -7   3   0 212.890 161.460   1
   7   3   0 325.098 209.378   2
   7  -3   1 58526.2 1880.60   2
   7   3   1 56131.3 1820.22   2
   7   3   2 5584.28 615.249   2
   7   4  -7 5252.41 330.101   2
   7   4  -6 9011.82 495.033   2
   7   4  -5 40.3155 144.427   2
   7   4  -4 40644.0 1254.28   2
   7   4  -3 13410.2 748.513   2
   7   4  -2 1866.30 321.581   2
   7   4  -1 5451.85 541.534   2
   7   4   0 18002.4 979.738   2
   7   4   1-151.235 253.626   2
   7   4   2 11617.0 850.986   2
   7   5  -7 300.182 137.676   2
   7   5  -6 21.7437 118.663   2
   7   5  -5 5443.63 439.436   2
   7   5  -4 12175.3 689.008   2
   7   5  -3 11070.1 691.871   2
   7   5  -2 398.754 233.190   2
   7   5  -1 11762.7 773.618   2
   7   5   0 5095.96 551.578   2
   7   5   1 17801.2 1028.86   2
   7   5   2 3086.76 474.617   2
   7   6  -7 118.520 139.545   2
   7   6  -6 5488.01 426.900   2
   7   6  -5 15452.7 758.121   2
   7   6  -4 33044.9 1167.73   2
   7   6  -3 1302.07 285.224   2
   7   6  -2 32366.2 1268.35   2
   7   6  -1 4392.36 512.140   2
  -7  -6   1 3910.46 326.781   1
   7   6   0 11531.5 808.499   2
   7   6   1 1560.92 403.504   2
   7   6   2 4544.93 574.833   2
   7   7  -7 46340.7 1267.73   2
  -7   7   5 13668.1 707.299   2
   7   7  -3 619.037 265.083   2
  -7  -7   2 225.559 145.843   1
   7   7  -2 341.342 199.892   2
  -7  -7   1 20997.6 781.957   1
   7   7  -1 19839.0 1044.32   2
   7   7   0 919.257 285.803   2
   7   7   1 287.391 254.373   2
  -7  -8   8 10169.5 849.253   1
  -7  -8   7 160.296 225.043   1
  -7  -8   6 21591.9 1115.26   1
  -7  -8   5 406.511 221.871   1
  -7  -8   4 991.474 241.345   1
  -7  -8   3 4105.19 425.624   1
  -7  -8   2 31865.6 1079.99   1
  -7  -8   1 11887.1 590.561   1
   7   8  -1 11944.5 819.914   2
   7   8   0 228.944 242.385   2
   7   8   1 2751.02 457.629   2
  -7  -9   8 457.800 272.454   1
  -7  -9   7 51587.5 1857.66   1
  -7  -9   6 9847.84 758.742   1
  -7  -9   5 8514.17 685.845   1
  -7  -9   4 113.789 170.793   1
  -7  -9   3 12112.3 713.675   1
  -7  -9   2-189.778 146.029   1
  -7  -9   1 6771.44 450.112   1
   7   9  -1 7956.35 707.264   2
   7   9   0 2382.28 404.839   2
   7   9   1 460.422 278.615   2
  -7 -10   8 20915.9 1231.64   1
  -7 -10   7 39.0470 242.290   1
  -7 -10   6 23087.4 1168.91   1
  -7 -10   5 93.5548 191.092   1
  -7 -10   4 103.341 175.440   1
  -7 -10   3 18952.8 902.073   1
  -7 -10   2 24899.1 975.149   1
   7  10   0 5087.14 600.708   2
  -7 -11   7 40095.8 1631.37   1
  -7 -11   6 1416.12 340.781   1
  -7 -11   5 126.509 194.576   1
  -7 -11   4 446.721 210.820   1
  -7 -11   3 15478.6 821.054   1
  -7 -11   2 4887.72 439.393   1
  -7 -12   7 35.4676 213.136   1
  -7 -12   6 12794.0 915.614   1
  -7 -12   5-29.4449 209.335   1
  -7 -12   4 17.3531 191.811   1
  -7 -12   3 4757.86 477.693   1
  -7 -12   2 35270.1 1248.82   1
  -7 -13   6 873.348 302.905   1
  -7 -13   5 3120.02 448.325   1
  -7 -13   4-139.720 212.264   1
  -7 -13   3 18163.1 973.252   1
  -7 -13   2 1466.75 276.379   1
  -7 -14   6 10011.8 809.403   1
  -7 -14   5 140.587 208.069   1
  -7 -14   4 726.340 273.715   1
  -7 -14   3 1985.49 344.583   1
  -7 -15   5 632.289 263.656   1
  -7 -15   4 812.468 288.636   1
  -7 -15   3 8262.67 683.176   1
  -7 -16   5 175.020 265.891   1
  -7 -16   4 1932.59 374.944   1
  -7 -17   4 1296.13 339.790   1
   8   0  -5-161.691 162.854   2
   8   0  -4-78.6228 171.301   2
   8   0  -3-64.1761 194.852   2
   8   0  -2 57585.0 1752.30   2
   8   0  -1-315.792 225.152   2
   8   0   0 9254.81 757.426   2
   8   1  -6 59.1758 134.471   2
   8   1  -5 3811.74 382.282   2
   8  -1  -4 1090.38 245.409   2
   8   1  -4 1354.33 273.509   2
   8  -1  -3 18798.8 923.660   2
   8   1  -3 18769.5 933.000   2
   8  -1  -2 1653.90 309.688   2
   8   1  -2 1468.19 323.690   2
   8  -1  -1 16146.0 934.643   2
   8   1  -1 16563.7 957.125   2
   8  -1   0 17901.2 1030.97   2
   8   1   0 17541.7 1029.21   2
   8   2  -6 39873.6 1167.43   2
   8   2  -5 49.6661 166.042   2
   8   2  -4-273.538 199.949   2
   8  -2  -3 1200.63 276.474   2
   8   2  -3 1101.46 280.805   2
   8   2  -2 5328.77 543.886   2
   8  -2  -2 4767.24 510.304   2
   8  -2  -1 11684.5 816.527   2
   8   2  -1 11605.4 811.602   2
   8  -2   0 3213.14 496.520   2
   8   2   0 2980.96 472.602   2
   8   3  -6 9977.57 570.083   2
   8   3  -5 1131.77 242.852   2
   8   3  -4 4382.65 450.248   2
   8   3  -3 1071.36 268.573   2
   8   3  -2 2882.02 418.582   2
   8   3  -1 19162.8 1035.86   2
   8   3   0 9401.95 765.385   2
   8   4  -6 17120.3 767.264   2
   8   4  -5 9046.16 601.436   2
   8   4  -4 236.577 179.439   2
   8   4  -3 15648.1 864.707   2
   8   4  -2 6550.05 603.901   2
   8   4  -1 2131.89 397.811   2
   8   4   0 3389.41 507.502   2
   8   5  -6 9512.32 591.637   2
   8   5  -5 7648.75 569.715   2
   8   5  -4 7214.35 589.156   2
   8   5  -3 2109.45 384.102   2
   8   5  -2 8474.82 700.042   2
   8   5  -1 13307.9 883.144   2
   8   5   0 5537.59 625.609   2
   8   6  -6 2521.38 330.691   2
   8   6  -5 12940.2 754.539   2
   8   6  -4 6038.88 547.727   2
   8   6  -3 19756.2 1013.08   2
   8   6  -2 18569.3 1039.69   2
   8   6  -1 4468.06 545.788   2
   8   6   0 4649.52 580.587   2
   8   7  -6 14205.7 772.558   2
   8   7  -5 8774.39 640.937   2
   8   7  -4 1286.64 293.125   2
  -8  -7   3 3374.38 394.482   1
   8   7  -3 3294.00 449.035   2
   8   7  -2 9237.98 757.133   2
  -8  -7   2 10296.3 621.425   1
   8   7  -1 8878.88 753.255   2
  -8  -8   7-83.4553 243.743   1
   8   8  -6 4636.28 460.474   2
  -8  -8   6 4949.59 575.683   1
   8   8  -5 5085.02 515.442   2
  -8  -8   5 5154.20 571.181   1
   8   8  -4 24674.6 1149.47   2
  -8  -8   4 26257.8 1133.58   1
  -8  -8   3 22161.5 1011.79   1
   8   8  -3 21655.3 1109.94   2
   8   8  -2 3261.91 478.775   2
   8   8  -1 2816.48 472.766   2
  -8  -9   7 7355.68 721.195   1
  -8  -9   6 96.0682 226.157   1
   8   9  -6-0.25779 196.937   2
   8   9  -5 23029.3 1097.89   2
  -8  -9   5 22522.3 1160.33   1
  -8  -9   4 874.354 283.475   1
   8   9  -4 1069.12 309.115   2
  -8  -9   3 849.591 233.203   1
   8   9  -3 1272.92 335.009   2
   8   9  -2 1041.74 321.440   2
   8   9  -1 41.8203 233.300   2
  -8 -10   7 103.742 225.657   1
  -8 -10   6 431.378 270.251   1
  -8 -10   5 21502.1 1125.11   1
  -8 -10   4 20299.7 1026.14   1
  -8 -10   3 1310.42 270.290   1
   8  10  -3 1285.64 356.061   2
   8  10  -2 5123.31 618.940   2
  -8 -11   6 89.4404 231.702   1
  -8 -11   5 9945.19 769.613   1
  -8 -11   4 4663.59 527.023   1
   8  11  -2 80.9593 261.407   2
  -8 -12   6 3317.79 510.894   1
  -8 -12   5-37.1795 242.118   1
  -8 -12   4 10277.5 758.085   1
  -8 -13   5 18969.5 1099.56   1
  -8 -13   4-212.149 240.593   1
  -8 -14   5 1466.02 366.742   1
  -8 -14   4 17043.6 1041.14   1
   9   0  -5-181.775 209.687   2
   9   0  -4 56616.0 1739.60   2
   9   0  -3 134.970 238.122   2
   9   0  -2 755.148 276.944   2
   9   1  -5 2111.06 335.762   2
   9  -1  -4 70.9092 197.686   2
   9   1  -4 26.1888 207.044   2
   9  -1  -3 22830.8 1127.58   2
   9   1  -3 20611.1 1066.75   2
   9  -1  -2 4784.49 550.892   2
   9   1  -2 5363.74 595.028   2
   9   2  -5 3845.78 443.380   2
   9   2  -4 17110.2 931.112   2
   9   2  -3 87.8303 214.853   2
   9   2  -2 2155.08 410.569   2
   9   3  -5 5157.99 499.302   2
   9   3  -4 587.042 275.725   2
   9   3  -3 15842.6 950.526   2
   9   3  -2 3908.77 511.156   2
   9   4  -5 6604.50 565.987   2
   9   4  -4 20752.6 1052.53   2
   9   4  -3 2204.25 397.349   2
   9   4  -2 733.715 264.172   2
   9   5  -5 6500.67 564.996   2
   9   5  -4 307.181 237.056   2
   9   5  -3 11040.6 808.905   2
   9   5  -2 10498.2 821.983   2
   9   6  -5 11850.6 777.258   2
   9   6  -4 5770.46 578.867   2
   9   6  -3 1886.99 389.041   2
   9   7  -5 5494.87 570.872   2
   9   7  -4 3743.69 497.671   2
   9   7  -3 418.857 276.702   2
  -9  -8   6 7411.67 708.833   1
  -9  -8   5 123.577 257.543   1
   9   8  -5 578.863 275.856   2
  -9  -8   4 2381.59 410.138   1
   9   8  -4 1801.97 396.867   2
   9   8  -3 38.1865 227.228   2
  -9  -9   6 2390.51 463.978   1
  -9  -9   5 6603.43 664.036   1
   9   9  -5 7253.12 669.630   2
   9   9  -4 2990.76 465.744   2
  -9 -10   5 7196.94 685.981   1
   9  10  -5 8366.11 731.507   2
   9  10  -4 1584.85 395.045   2
  -9 -11   5 10465.6 805.299   1
   9  11  -5 9871.97 810.619   2
  10   0  -4 5924.51 624.446   2
  10   1  -4 28.1474 228.561   2
  10   2  -4 1127.35 336.460   2
  10   3  -4 4631.10 543.641   2
  10   4  -4 1865.66 375.524   2
   0   0   0    0.00    0.00   0
 
TITL bmo285cu in P2(1)/c
REM P2(1)/c (#14 in standard setting)
CELL 0.71073   7.600461  17.586786   8.902426  90.0000 114.9337  90.0000
ZERR    2.00   0.000526   0.000627   0.000511   0.0000   0.0078   0.0000
LATT  1
SYMM -x, y+1/2,-z+1/2
SFAC C H N O Cu
UNIT 40.00 40.00 20.00 20.00 4.00
TREF
HKLF 4
END
;
_shelx_hkl_checksum              71377




